1

   Abaqus 6.12-2                                  Date 12-Feb-2014   Time 17:32:26
   



     PROCESSING PART, INSTANCE, AND ASSEMBLY INFORMATION
   *******************************************************


     END PROCESSING PART, INSTANCE, AND ASSEMBLY INFORMATION
   ***********************************************************




     OPTIONS BEING PROCESSED
   ***************************


  *Heading
  *Node
  *Element, type=B21
  *Nset, nset=ASSEMBLY_PART-1-1_SET-1
  *Elset, elset=ASSEMBLY_PART-1-1_SET-1
  *Nset, nset=ASSEMBLY_SET-1
  *material, name=RUBBER
  *density
  *elastic
  *beamsection, elset=ASSEMBLY_PART-1-1_SET-1, temperature=GRADIENTS, material=RUBBER, section=RECTANGULAR
  *output, field, variable=PRESELECT
  *output, field
  *output, field, variable=PRESELECT
  *output, field
  *output, field, variable=PRESELECT
  *output, field
  *Step, name=Step-1
  *Step, name=Step-2, perturbation
  *frequency, eigensolver=LANCZOS, normalization=DISPLACEMENT, acousticcoupling=ON
  *output, field, variable=PRESELECT
  *output, field
  *Step, name=Step-1
  *Step, name=Step-2, perturbation
  *Step, name=Step-1
  *matrixgenerate, mass, stiffness
  *matrixoutput, mass, stiffness
  *endstep
  *Step, name=Step-2, perturbation
  eigenFrequency                                                                  
  *frequency, eigensolver=LANCZOS, normalization=DISPLACEMENT, acousticcoupling=ON
  *frequency, eigensolver=LANCZOS, normalization=DISPLACEMENT, acousticcoupling=ON
  *boundary
  *output, field, variable=PRESELECT
  *output, field
  *nodeprint, mode=1, lastmode=30
  *endstep
  *Step, name=Step-1
  *endstep
  *Step, name=Step-2, perturbation
  *frequency, eigensolver=LANCZOS, normalization=DISPLACEMENT, acousticcoupling=ON
  *frequency, eigensolver=LANCZOS, normalization=DISPLACEMENT, acousticcoupling=ON
  *boundary
  *endstep


                              E L E M E N T,   N O D E,   A N D   S U R F A C E   M A P S


Assembly name: ASSEMBLY
Number of instances: 1

ASSEMBLY LEVEL
  node sets:
    SET-1:
      instance name: PART-1-1
      number of nodes: 1
      nodes: 
        1

  element sets:
  Surfaces:

INSTANCE LEVEL
  node sets:
    Instance name: PART-1-1
      node set name: SET-1
        number of nodes: 101
        nodes: 
          1 2 3 4 5 6 7 8 9 10 11 12 13 14 15 16 17 18 19 20 21 22 23 24
          25 26 27 28 29 30 31 32 33 34 35 36 37 38 39 40 41 42 43 44 45
          46 47 48 49 50 51 52 53 54 55 56 57 58 59 60 61 62 63 64 65 66
          67 68 69 70 71 72 73 74 75 76 77 78 79 80 81 82 83 84 85 86 87
          88 89 90 91 92 93 94 95 96 97 98 99 100 101

  element sets:
    Instance name: PART-1-1
      element set name: SET-1
        number of elements: 100
        elements: 
          1 2 3 4 5 6 7 8 9 10 11 12 13 14 15 16 17 18 19 20 21 22 23 24
          25 26 27 28 29 30 31 32 33 34 35 36 37 38 39 40 41 42 43 44 45
          46 47 48 49 50 51 52 53 54 55 56 57 58 59 60 61 62 63 64 65 66
          67 68 69 70 71 72 73 74 75 76 77 78 79 80 81 82 83 84 85 86 87
          88 89 90 91 92 93 94 95 96 97 98 99 100

  Surfaces:

GLOBAL TO LOCAL NODE AND ELEMENT MAPS
  Global     Local      
  node       node       
  number     number     
                        Instance name                                   
   1          1         PART-1-1                                        
   2          2         PART-1-1                                        
   3          3         PART-1-1                                        
   4          4         PART-1-1                                        
   5          5         PART-1-1                                        
   6          6         PART-1-1                                        
   7          7         PART-1-1                                        
   8          8         PART-1-1                                        
   9          9         PART-1-1                                        
   10         10        PART-1-1                                        
   11         11        PART-1-1                                        
   12         12        PART-1-1                                        
   13         13        PART-1-1                                        
   14         14        PART-1-1                                        
   15         15        PART-1-1                                        
   16         16        PART-1-1                                        
   17         17        PART-1-1                                        
   18         18        PART-1-1                                        
   19         19        PART-1-1                                        
   20         20        PART-1-1                                        
   21         21        PART-1-1                                        
   22         22        PART-1-1                                        
   23         23        PART-1-1                                        
   24         24        PART-1-1                                        
   25         25        PART-1-1                                        
   26         26        PART-1-1                                        
   27         27        PART-1-1                                        
   28         28        PART-1-1                                        
   29         29        PART-1-1                                        
   30         30        PART-1-1                                        
   31         31        PART-1-1                                        
   32         32        PART-1-1                                        
   33         33        PART-1-1                                        
   34         34        PART-1-1                                        
   35         35        PART-1-1                                        
   36         36        PART-1-1                                        
   37         37        PART-1-1                                        
   38         38        PART-1-1                                        
   39         39        PART-1-1                                        
   40         40        PART-1-1                                        
   41         41        PART-1-1                                        
   42         42        PART-1-1                                        
   43         43        PART-1-1                                        
   44         44        PART-1-1                                        
   45         45        PART-1-1                                        
   46         46        PART-1-1                                        
   47         47        PART-1-1                                        
   48         48        PART-1-1                                        
   49         49        PART-1-1                                        
   50         50        PART-1-1                                        
   51         51        PART-1-1                                        
   52         52        PART-1-1                                        
   53         53        PART-1-1                                        
   54         54        PART-1-1                                        
   55         55        PART-1-1                                        
   56         56        PART-1-1                                        
   57         57        PART-1-1                                        
   58         58        PART-1-1                                        
   59         59        PART-1-1                                        
   60         60        PART-1-1                                        
   61         61        PART-1-1                                        
   62         62        PART-1-1                                        
   63         63        PART-1-1                                        
   64         64        PART-1-1                                        
   65         65        PART-1-1                                        
   66         66        PART-1-1                                        
   67         67        PART-1-1                                        
   68         68        PART-1-1                                        
   69         69        PART-1-1                                        
   70         70        PART-1-1                                        
   71         71        PART-1-1                                        
   72         72        PART-1-1                                        
   73         73        PART-1-1                                        
   74         74        PART-1-1                                        
   75         75        PART-1-1                                        
   76         76        PART-1-1                                        
   77         77        PART-1-1                                        
   78         78        PART-1-1                                        
   79         79        PART-1-1                                        
   80         80        PART-1-1                                        
   81         81        PART-1-1                                        
   82         82        PART-1-1                                        
   83         83        PART-1-1                                        
   84         84        PART-1-1                                        
   85         85        PART-1-1                                        
   86         86        PART-1-1                                        
   87         87        PART-1-1                                        
   88         88        PART-1-1                                        
   89         89        PART-1-1                                        
   90         90        PART-1-1                                        
   91         91        PART-1-1                                        
   92         92        PART-1-1                                        
   93         93        PART-1-1                                        
   94         94        PART-1-1                                        
   95         95        PART-1-1                                        
   96         96        PART-1-1                                        
   97         97        PART-1-1                                        
   98         98        PART-1-1                                        
   99         99        PART-1-1                                        
   100        100       PART-1-1                                        
   101        101       PART-1-1                                        

  Global     Local      
  element    element    
  number     number     
                        Instance name                                   
   1          1         PART-1-1                                        
   2          2         PART-1-1                                        
   3          3         PART-1-1                                        
   4          4         PART-1-1                                        
   5          5         PART-1-1                                        
   6          6         PART-1-1                                        
   7          7         PART-1-1                                        
   8          8         PART-1-1                                        
   9          9         PART-1-1                                        
   10         10        PART-1-1                                        
   11         11        PART-1-1                                        
   12         12        PART-1-1                                        
   13         13        PART-1-1                                        
   14         14        PART-1-1                                        
   15         15        PART-1-1                                        
   16         16        PART-1-1                                        
   17         17        PART-1-1                                        
   18         18        PART-1-1                                        
   19         19        PART-1-1                                        
   20         20        PART-1-1                                        
   21         21        PART-1-1                                        
   22         22        PART-1-1                                        
   23         23        PART-1-1                                        
   24         24        PART-1-1                                        
   25         25        PART-1-1                                        
   26         26        PART-1-1                                        
   27         27        PART-1-1                                        
   28         28        PART-1-1                                        
   29         29        PART-1-1                                        
   30         30        PART-1-1                                        
   31         31        PART-1-1                                        
   32         32        PART-1-1                                        
   33         33        PART-1-1                                        
   34         34        PART-1-1                                        
   35         35        PART-1-1                                        
   36         36        PART-1-1                                        
   37         37        PART-1-1                                        
   38         38        PART-1-1                                        
   39         39        PART-1-1                                        
   40         40        PART-1-1                                        
   41         41        PART-1-1                                        
   42         42        PART-1-1                                        
   43         43        PART-1-1                                        
   44         44        PART-1-1                                        
   45         45        PART-1-1                                        
   46         46        PART-1-1                                        
   47         47        PART-1-1                                        
   48         48        PART-1-1                                        
   49         49        PART-1-1                                        
   50         50        PART-1-1                                        
   51         51        PART-1-1                                        
   52         52        PART-1-1                                        
   53         53        PART-1-1                                        
   54         54        PART-1-1                                        
   55         55        PART-1-1                                        
   56         56        PART-1-1                                        
   57         57        PART-1-1                                        
   58         58        PART-1-1                                        
   59         59        PART-1-1                                        
   60         60        PART-1-1                                        
   61         61        PART-1-1                                        
   62         62        PART-1-1                                        
   63         63        PART-1-1                                        
   64         64        PART-1-1                                        
   65         65        PART-1-1                                        
   66         66        PART-1-1                                        
   67         67        PART-1-1                                        
   68         68        PART-1-1                                        
   69         69        PART-1-1                                        
   70         70        PART-1-1                                        
   71         71        PART-1-1                                        
   72         72        PART-1-1                                        
   73         73        PART-1-1                                        
   74         74        PART-1-1                                        
   75         75        PART-1-1                                        
   76         76        PART-1-1                                        
   77         77        PART-1-1                                        
   78         78        PART-1-1                                        
   79         79        PART-1-1                                        
   80         80        PART-1-1                                        
   81         81        PART-1-1                                        
   82         82        PART-1-1                                        
   83         83        PART-1-1                                        
   84         84        PART-1-1                                        
   85         85        PART-1-1                                        
   86         86        PART-1-1                                        
   87         87        PART-1-1                                        
   88         88        PART-1-1                                        
   89         89        PART-1-1                                        
   90         90        PART-1-1                                        
   91         91        PART-1-1                                        
   92         92        PART-1-1                                        
   93         93        PART-1-1                                        
   94         94        PART-1-1                                        
   95         95        PART-1-1                                        
   96         96        PART-1-1                                        
   97         97        PART-1-1                                        
   98         98        PART-1-1                                        
   99         99        PART-1-1                                        
   100        100       PART-1-1                                        

LOCAL TO GLOBAL NODE AND ELEMENT MAPS
                                                  Local      Global     
                                                  node       node       
                                                  number     number
  Instance name
  PART-1-1                                         1          1         
  PART-1-1                                         2          2         
  PART-1-1                                         3          3         
  PART-1-1                                         4          4         
  PART-1-1                                         5          5         
  PART-1-1                                         6          6         
  PART-1-1                                         7          7         
  PART-1-1                                         8          8         
  PART-1-1                                         9          9         
  PART-1-1                                         10         10        
  PART-1-1                                         11         11        
  PART-1-1                                         12         12        
  PART-1-1                                         13         13        
  PART-1-1                                         14         14        
  PART-1-1                                         15         15        
  PART-1-1                                         16         16        
  PART-1-1                                         17         17        
  PART-1-1                                         18         18        
  PART-1-1                                         19         19        
  PART-1-1                                         20         20        
  PART-1-1                                         21         21        
  PART-1-1                                         22         22        
  PART-1-1                                         23         23        
  PART-1-1                                         24         24        
  PART-1-1                                         25         25        
  PART-1-1                                         26         26        
  PART-1-1                                         27         27        
  PART-1-1                                         28         28        
  PART-1-1                                         29         29        
  PART-1-1                                         30         30        
  PART-1-1                                         31         31        
  PART-1-1                                         32         32        
  PART-1-1                                         33         33        
  PART-1-1                                         34         34        
  PART-1-1                                         35         35        
  PART-1-1                                         36         36        
  PART-1-1                                         37         37        
  PART-1-1                                         38         38        
  PART-1-1                                         39         39        
  PART-1-1                                         40         40        
  PART-1-1                                         41         41        
  PART-1-1                                         42         42        
  PART-1-1                                         43         43        
  PART-1-1                                         44         44        
  PART-1-1                                         45         45        
  PART-1-1                                         46         46        
  PART-1-1                                         47         47        
  PART-1-1                                         48         48        
  PART-1-1                                         49         49        
  PART-1-1                                         50         50        
  PART-1-1                                         51         51        
  PART-1-1                                         52         52        
  PART-1-1                                         53         53        
  PART-1-1                                         54         54        
  PART-1-1                                         55         55        
  PART-1-1                                         56         56        
  PART-1-1                                         57         57        
  PART-1-1                                         58         58        
  PART-1-1                                         59         59        
  PART-1-1                                         60         60        
  PART-1-1                                         61         61        
  PART-1-1                                         62         62        
  PART-1-1                                         63         63        
  PART-1-1                                         64         64        
  PART-1-1                                         65         65        
  PART-1-1                                         66         66        
  PART-1-1                                         67         67        
  PART-1-1                                         68         68        
  PART-1-1                                         69         69        
  PART-1-1                                         70         70        
  PART-1-1                                         71         71        
  PART-1-1                                         72         72        
  PART-1-1                                         73         73        
  PART-1-1                                         74         74        
  PART-1-1                                         75         75        
  PART-1-1                                         76         76        
  PART-1-1                                         77         77        
  PART-1-1                                         78         78        
  PART-1-1                                         79         79        
  PART-1-1                                         80         80        
  PART-1-1                                         81         81        
  PART-1-1                                         82         82        
  PART-1-1                                         83         83        
  PART-1-1                                         84         84        
  PART-1-1                                         85         85        
  PART-1-1                                         86         86        
  PART-1-1                                         87         87        
  PART-1-1                                         88         88        
  PART-1-1                                         89         89        
  PART-1-1                                         90         90        
  PART-1-1                                         91         91        
  PART-1-1                                         92         92        
  PART-1-1                                         93         93        
  PART-1-1                                         94         94        
  PART-1-1                                         95         95        
  PART-1-1                                         96         96        
  PART-1-1                                         97         97        
  PART-1-1                                         98         98        
  PART-1-1                                         99         99        
  PART-1-1                                         100        100       
  PART-1-1                                         101        101       

                                                  Local      Global     
                                                  element    element    
                                                  number     number
  Instance name
  PART-1-1                                         1          1         
  PART-1-1                                         2          2         
  PART-1-1                                         3          3         
  PART-1-1                                         4          4         
  PART-1-1                                         5          5         
  PART-1-1                                         6          6         
  PART-1-1                                         7          7         
  PART-1-1                                         8          8         
  PART-1-1                                         9          9         
  PART-1-1                                         10         10        
  PART-1-1                                         11         11        
  PART-1-1                                         12         12        
  PART-1-1                                         13         13        
  PART-1-1                                         14         14        
  PART-1-1                                         15         15        
  PART-1-1                                         16         16        
  PART-1-1                                         17         17        
  PART-1-1                                         18         18        
  PART-1-1                                         19         19        
  PART-1-1                                         20         20        
  PART-1-1                                         21         21        
  PART-1-1                                         22         22        
  PART-1-1                                         23         23        
  PART-1-1                                         24         24        
  PART-1-1                                         25         25        
  PART-1-1                                         26         26        
  PART-1-1                                         27         27        
  PART-1-1                                         28         28        
  PART-1-1                                         29         29        
  PART-1-1                                         30         30        
  PART-1-1                                         31         31        
  PART-1-1                                         32         32        
  PART-1-1                                         33         33        
  PART-1-1                                         34         34        
  PART-1-1                                         35         35        
  PART-1-1                                         36         36        
  PART-1-1                                         37         37        
  PART-1-1                                         38         38        
  PART-1-1                                         39         39        
  PART-1-1                                         40         40        
  PART-1-1                                         41         41        
  PART-1-1                                         42         42        
  PART-1-1                                         43         43        
  PART-1-1                                         44         44        
  PART-1-1                                         45         45        
  PART-1-1                                         46         46        
  PART-1-1                                         47         47        
  PART-1-1                                         48         48        
  PART-1-1                                         49         49        
  PART-1-1                                         50         50        
  PART-1-1                                         51         51        
  PART-1-1                                         52         52        
  PART-1-1                                         53         53        
  PART-1-1                                         54         54        
  PART-1-1                                         55         55        
  PART-1-1                                         56         56        
  PART-1-1                                         57         57        
  PART-1-1                                         58         58        
  PART-1-1                                         59         59        
  PART-1-1                                         60         60        
  PART-1-1                                         61         61        
  PART-1-1                                         62         62        
  PART-1-1                                         63         63        
  PART-1-1                                         64         64        
  PART-1-1                                         65         65        
  PART-1-1                                         66         66        
  PART-1-1                                         67         67        
  PART-1-1                                         68         68        
  PART-1-1                                         69         69        
  PART-1-1                                         70         70        
  PART-1-1                                         71         71        
  PART-1-1                                         72         72        
  PART-1-1                                         73         73        
  PART-1-1                                         74         74        
  PART-1-1                                         75         75        
  PART-1-1                                         76         76        
  PART-1-1                                         77         77        
  PART-1-1                                         78         78        
  PART-1-1                                         79         79        
  PART-1-1                                         80         80        
  PART-1-1                                         81         81        
  PART-1-1                                         82         82        
  PART-1-1                                         83         83        
  PART-1-1                                         84         84        
  PART-1-1                                         85         85        
  PART-1-1                                         86         86        
  PART-1-1                                         87         87        
  PART-1-1                                         88         88        
  PART-1-1                                         89         89        
  PART-1-1                                         90         90        
  PART-1-1                                         91         91        
  PART-1-1                                         92         92        
  PART-1-1                                         93         93        
  PART-1-1                                         94         94        
  PART-1-1                                         95         95        
  PART-1-1                                         96         96        
  PART-1-1                                         97         97        
  PART-1-1                                         98         98        
  PART-1-1                                         99         99        
  PART-1-1                                         100        100       




                            P R O B L E M   S I Z E


          NUMBER OF ELEMENTS IS                                   100
          NUMBER OF NODES IS                                      301
          NUMBER OF NODES DEFINED BY THE USER                     101
          NUMBER OF INTERNAL NODES GENERATED BY THE PROGRAM       200
          TOTAL NUMBER OF VARIABLES IN THE MODEL                  303
          (DEGREES OF FREEDOM PLUS MAX NO. OF ANY LAGRANGE MULTIPLIER
           VARIABLES. INCLUDE *PRINT,SOLVE=YES TO GET THE ACTUAL NUMBER.)



                              END OF USER INPUT PROCESSING



     JOB TIME SUMMARY
       USER TIME (SEC)      =  0.10000    
       SYSTEM TIME (SEC)    =   0.0000    
       TOTAL CPU TIME (SEC) =  0.10000    
       WALLCLOCK TIME (SEC) =          0
1

   Abaqus 6.12-2                                  Date 12-Feb-2014   Time 17:32:27
   

                                                                                               STEP    1  INCREMENT    1
                                                                                          TIME COMPLETED IN THIS STEP   0.00    


                        S T E P       1     M A T R I X  G E N E R A T E

  THE FOLLOWING GLOBAL MATRICES WILL BE GENERATED AND WRITTEN TO BenuliBeam-1_X1.sim

  STIFFNESS
  MASS

  THE FOLLOWING GLOBAL MATRICES WILL BE OUTPUTTED TO THE FOLLOWING TEXT FILES

  STIFFNESS          TO BenuliBeam-1_STIF1.mtx
  MASS               TO BenuliBeam-1_MASS1.mtx



                    TOTAL MASS OF MODEL

                      3.4500000E-03


                    LOCATION OF THE CENTER OF MASS OF THE MODEL

                      -450.0000         -3.6379788E-16


                    MOMENT OF INERTIA ABOUT THE ORIGIN
                           I(ZZ)

                       1346.348    


                    PRODUCT OF INERTIA ABOUT THE ORIGIN
                           I(XY)

                     -5.6479621E-16


                    MOMENT OF INERTIA ABOUT THE CENTER OF MASS
                           I(ZZ)

                       647.7231    


                    PRODUCT OF INERTIA ABOUT THE CENTER OF MASS
                           I(XY)

                      2.9582284E-30
  
                   M E M O R Y   E S T I M A T E
  
 PROCESS      FLOATING PT       MINIMUM MEMORY        MEMORY TO
              OPERATIONS           REQUIRED          MINIMIZE I/O
             PER ITERATION         (MBYTES)           (MBYTES)
  
     1         0.00E+000               16                 24
  
 NOTE:
      (1) SINCE ABAQUS DOES NOT PRE-ALLOCATE MEMORY AND ONLY ALLOCATES MEMORY AS NEEDED DURING THE ANALYSIS,
          THE MEMORY REQUIREMENT PRINTED HERE CAN ONLY BE VIEWED AS A GENERAL GUIDELINE BASED ON THE BEST
          KNOWLEDGE AVAILABLE AT THE BEGINNING OF A STEP BEFORE THE SOLUTION PROCESS HAS BEGUN.
      (2) THE ESTIMATE IS NORMALLY UPDATED AT THE BEGINNING OF EVERY STEP. IT IS THE MAXIMUM VALUE OF THE
          ESTIMATE FROM THE CURRENT STEP TO THE LAST STEP OF THE ANALYSIS, WITH UNSYMMETRIC SOLUTION TAKEN
          INTO ACCOUNT IF APPLICABLE. 
      (3) SINCE THE ESTIMATE IS BASED ON THE ACTIVE DEGREES OF FREEDOM IN THE FIRST ITERATION OF THE 
          CURRENT STEP, THE MEMORY ESTIMATE MIGHT BE SIGNIFICANTLY DIFFERENT THAN ACTUAL USAGE FOR 
          PROBLEMS WITH SUBSTANTIAL CHANGES IN ACTIVE DEGREES OF FREEDOM BETWEEN STEPS (OR EVEN WITHIN
          THE SAME STEP). EXAMPLES ARE: PROBLEMS WITH SIGNIFICANT CONTACT CHANGES, PROBLEMS WITH MODEL
          CHANGE, PROBLEMS WITH BOTH STATIC STEP AND STEADY STATE DYNAMIC PROCEDURES WHERE ACOUSTIC 
          ELEMENTS WILL ONLY BE ACTIVATED IN THE STEADY STATE DYNAMIC STEPS.
      (4) FOR MULTI-PROCESS EXECUTION, THE ESTIMATED VALUE OF FLOATING POINT OPERATIONS FOR EACH PROCESS
          IS BASED ON AN INITIAL SCHEDULING OF OPERATIONS AND MIGHT NOT REFLECT THE ACTUAL FLOATING 
          POINT OPERATIONS COMPLETED ON EACH PROCESS. OPERATIONS ARE DYNAMICALLY BALANCED DURING EXECUTION, 
          SO THE ACTUAL BALANCE OF OPERATIONS BETWEEN PROCESSES IS EXPECTED TO BE BETTER THAN THE ESTIMATE
          PRINTED HERE.
      (5) THE UPPER LIMIT OF MEMORY THAT CAN BE ALLOCATED BY ABAQUS WILL IN GENERAL DEPEND ON THE VALUE OF
          THE "MEMORY" PARAMETER AND THE AMOUNT OF PHYSICAL MEMORY AVAILABLE ON THE MACHINE. PLEASE SEE
          THE "ABAQUS ANALYSIS USER'S MANUAL" FOR MORE DETAILS. THE ACTUAL USAGE OF MEMORY AND OF DISK
          SPACE FOR SCRATCH DATA WILL DEPEND ON THIS UPPER LIMIT AS WELL AS THE MEMORY REQUIRED TO MINIMIZE
          I/O. IF THE MEMORY UPPER LIMIT IS GREATER THAN THE MEMORY REQUIRED TO MINIMIZE I/O, THEN THE ACTUAL
          MEMORY USAGE WILL BE CLOSE TO THE ESTIMATED "MEMORY TO MINIMIZE I/O" VALUE, AND THE SCRATCH DISK
          USAGE WILL BE CLOSE-TO-ZERO; OTHERWISE, THE ACTUAL MEMORY USED WILL BE CLOSE TO THE PREVIOUSLY
          MENTIONED MEMORY LIMIT, AND THE SCRATCH DISK USAGE WILL BE ROUGHLY PROPORTIONAL TO THE DIFFERENCE
          BETWEEN THE ESTIMATED "MEMORY TO MINIMIZE I/O" AND THE MEMORY UPPER LIMIT. HOWEVER ACCURATE
          ESTIMATE OF THE SCRATCH DISK SPACE IS NOT POSSIBLE.
      (6) USING "*RESTART, WRITE" CAN GENERATE A LARGE AMOUNT OF DATA WRITTEN IN THE WORK DIRECTORY.
1

   Abaqus 6.12-2                                  Date 12-Feb-2014   Time 17:32:28
   

                                                                                               STEP    2  INCREMENT    1
     eigenFrequency                                                                       TIME COMPLETED IN THIS STEP   0.00    


                        S T E P       2     C A L C U L A T I O N   O F   E I G E N V A L U E S

                                            F O R   N A T U R A L   F R E Q U E N C I E S



          eigenFrequency                                                                  

     THE LANCZOS EIGENSOLVER IS USED FOR THIS ANALYSIS
     Abaqus WILL COMPUTE UNCOUPLED
      STRUCTURAL AND ACOUSTIC MODES
     NUMBER OF EIGENVALUES                    100
     HIGHEST FREQUENCY OF INTEREST                  1.00000E+18
     MAXIMUM NUMBER OF STEPS WITHIN RUN               35
     BLOCK SIZE FOR LANCZOS PROCEDURE                  7
     THE EIGENVECTORS ARE SCALED SO THAT 
      THE LARGEST DISPLACEMENT ENTRY IN EACH VECTOR
      IS UNITY

     THIS IS A LINEAR PERTURBATION STEP.
     ALL LOADS ARE DEFINED AS CHANGE IN LOAD TO THE REFERENCE STATE
  
                   M E M O R Y   E S T I M A T E
  
 PROCESS      FLOATING PT       MINIMUM MEMORY        MEMORY TO
              OPERATIONS           REQUIRED          MINIMIZE I/O
             PER ITERATION         (MBYTES)           (MBYTES)
  
     1         1.82E+004               16                 25
  
 NOTE:
      (1) SINCE ABAQUS DOES NOT PRE-ALLOCATE MEMORY AND ONLY ALLOCATES MEMORY AS NEEDED DURING THE ANALYSIS,
          THE MEMORY REQUIREMENT PRINTED HERE CAN ONLY BE VIEWED AS A GENERAL GUIDELINE BASED ON THE BEST
          KNOWLEDGE AVAILABLE AT THE BEGINNING OF A STEP BEFORE THE SOLUTION PROCESS HAS BEGUN.
      (2) THE ESTIMATE IS NORMALLY UPDATED AT THE BEGINNING OF EVERY STEP. IT IS THE MAXIMUM VALUE OF THE
          ESTIMATE FROM THE CURRENT STEP TO THE LAST STEP OF THE ANALYSIS, WITH UNSYMMETRIC SOLUTION TAKEN
          INTO ACCOUNT IF APPLICABLE. 
      (3) SINCE THE ESTIMATE IS BASED ON THE ACTIVE DEGREES OF FREEDOM IN THE FIRST ITERATION OF THE 
          CURRENT STEP, THE MEMORY ESTIMATE MIGHT BE SIGNIFICANTLY DIFFERENT THAN ACTUAL USAGE FOR 
          PROBLEMS WITH SUBSTANTIAL CHANGES IN ACTIVE DEGREES OF FREEDOM BETWEEN STEPS (OR EVEN WITHIN
          THE SAME STEP). EXAMPLES ARE: PROBLEMS WITH SIGNIFICANT CONTACT CHANGES, PROBLEMS WITH MODEL
          CHANGE, PROBLEMS WITH BOTH STATIC STEP AND STEADY STATE DYNAMIC PROCEDURES WHERE ACOUSTIC 
          ELEMENTS WILL ONLY BE ACTIVATED IN THE STEADY STATE DYNAMIC STEPS.
      (4) FOR MULTI-PROCESS EXECUTION, THE ESTIMATED VALUE OF FLOATING POINT OPERATIONS FOR EACH PROCESS
          IS BASED ON AN INITIAL SCHEDULING OF OPERATIONS AND MIGHT NOT REFLECT THE ACTUAL FLOATING 
          POINT OPERATIONS COMPLETED ON EACH PROCESS. OPERATIONS ARE DYNAMICALLY BALANCED DURING EXECUTION, 
          SO THE ACTUAL BALANCE OF OPERATIONS BETWEEN PROCESSES IS EXPECTED TO BE BETTER THAN THE ESTIMATE
          PRINTED HERE.
      (5) THE UPPER LIMIT OF MEMORY THAT CAN BE ALLOCATED BY ABAQUS WILL IN GENERAL DEPEND ON THE VALUE OF
          THE "MEMORY" PARAMETER AND THE AMOUNT OF PHYSICAL MEMORY AVAILABLE ON THE MACHINE. PLEASE SEE
          THE "ABAQUS ANALYSIS USER'S MANUAL" FOR MORE DETAILS. THE ACTUAL USAGE OF MEMORY AND OF DISK
          SPACE FOR SCRATCH DATA WILL DEPEND ON THIS UPPER LIMIT AS WELL AS THE MEMORY REQUIRED TO MINIMIZE
          I/O. IF THE MEMORY UPPER LIMIT IS GREATER THAN THE MEMORY REQUIRED TO MINIMIZE I/O, THEN THE ACTUAL
          MEMORY USAGE WILL BE CLOSE TO THE ESTIMATED "MEMORY TO MINIMIZE I/O" VALUE, AND THE SCRATCH DISK
          USAGE WILL BE CLOSE-TO-ZERO; OTHERWISE, THE ACTUAL MEMORY USED WILL BE CLOSE TO THE PREVIOUSLY
          MENTIONED MEMORY LIMIT, AND THE SCRATCH DISK USAGE WILL BE ROUGHLY PROPORTIONAL TO THE DIFFERENCE
          BETWEEN THE ESTIMATED "MEMORY TO MINIMIZE I/O" AND THE MEMORY UPPER LIMIT. HOWEVER ACCURATE
          ESTIMATE OF THE SCRATCH DISK SPACE IS NOT POSSIBLE.
      (6) USING "*RESTART, WRITE" CAN GENERATE A LARGE AMOUNT OF DATA WRITTEN IN THE WORK DIRECTORY.


                              E I G E N V A L U E    O U T P U T     

 MODE NO      EIGENVALUE              FREQUENCY         GENERALIZED MASS   COMPOSITE MODAL DAMPING            
                             (RAD/TIME)   (CYCLES/TIME)


       1       27.598         5.2534        0.83611        8.63466E-04     0.0000    
       2       1072.5         32.750         5.2123        8.69982E-04     0.0000    
       3       8270.8         90.944         14.474        8.80741E-04     0.0000    
       4       31022.         176.13         28.032        8.96385E-04     0.0000    
       5       59598.         244.13         38.854        1.72500E-03     0.0000    
       6       82308.         286.89         45.661        9.16333E-04     0.0000    
       7      1.77386E+05     421.17         67.032        9.40269E-04     0.0000    
       8      3.32653E+05     576.76         91.794        9.67823E-04     0.0000    
       9      5.36292E+05     732.32         116.55        1.72500E-03     0.0000    
      10      5.64613E+05     751.41         119.59        9.98638E-04     0.0000    
      11      8.89081E+05     942.91         150.07        1.03238E-03     0.0000    
      12      1.32063E+06     1149.2         182.90        1.06877E-03     0.0000    
      13      1.48921E+06     1220.3         194.22        1.72500E-03     0.0000    
      14      1.87225E+06     1368.3         217.77        1.10757E-03     0.0000    
      15      2.55520E+06     1598.5         254.41        1.14858E-03     0.0000    
      16      2.91741E+06     1708.0         271.84        1.72500E-03     0.0000    
      17      3.37899E+06     1838.2         292.56        1.19170E-03     0.0000    
      18      4.35143E+06     2086.0         332.00        1.23686E-03     0.0000    
      19      4.81949E+06     2195.3         349.40        1.72500E-03     0.0000    
      20      5.47874E+06     2340.7         372.53        1.28407E-03     0.0000    
      21      6.76571E+06     2601.1         413.98        1.33338E-03     0.0000    
      22      7.19356E+06     2682.1         426.87        1.72500E-03     0.0000    
      23      8.21579E+06     2866.3         456.19        1.38493E-03     0.0000    
      24      9.83130E+06     3135.5         499.03        1.43894E-03     0.0000    
      25      1.00373E+07     3168.2         504.23        1.72500E-03     0.0000    
      26      1.16135E+07     3407.9         542.38        1.49568E-03     0.0000    
      27      1.33479E+07     3653.5         581.47        1.72500E-03     0.0000    
      28      1.35627E+07     3682.8         586.13        1.54676E-03     0.0000    
      29      1.56785E+07     3959.6         630.19        1.55350E-03     0.0000    
      30      1.71220E+07     4137.9         658.56        1.72500E-03     0.0000    
      31      1.79596E+07     4237.9         674.48        1.59716E-03     0.0000    
      32      2.04043E+07     4517.1         718.92        1.68155E-03     0.0000    
      33      2.13560E+07     4621.3         735.50        1.72500E-03     0.0000    
      34      2.30100E+07     4796.9         763.45        1.71332E-03     0.0000    
      35      2.57740E+07     5076.8         808.00        1.65323E-03     0.0000    
      36      2.60457E+07     5103.5         812.25        1.72500E-03     0.0000    
      37      2.86929E+07     5356.6         852.52        1.61422E-03     0.0000    
      38      3.11865E+07     5584.5         888.80        1.72500E-03     0.0000    
      39      3.17627E+07     5635.8         896.97        1.59419E-03     0.0000    
      40      3.49794E+07     5914.3         941.30        1.59195E-03     0.0000    
      41      3.67732E+07     6064.1         965.13        1.72500E-03     0.0000    
      42      3.83385E+07     6191.8         985.46        1.60714E-03     0.0000    
      43      4.18349E+07     6468.0         1029.4        1.64015E-03     0.0000    
      44      4.28003E+07     6542.2         1041.2        1.72500E-03     0.0000    
      45      4.54636E+07     6742.7         1073.1        1.69224E-03     0.0000    
      46      4.92188E+07     7015.6         1116.6        1.76560E-03     0.0000    
      47      4.92620E+07     7018.7         1117.1        1.72500E-03     0.0000    
      48      5.30946E+07     7286.6         1159.7        1.78726E-03     0.0000    
      49      5.61519E+07     7493.5         1192.6        1.72500E-03     0.0000    
      50      5.70846E+07     7555.4         1202.5        1.71118E-03     0.0000    
      51      6.11814E+07     7821.9         1244.9        1.75100E-03     0.0000    
      52      6.34630E+07     7966.4         1267.9        1.72500E-03     0.0000    
      53      6.53771E+07     8085.6         1286.9        1.88128E-03     0.0000    
      54      6.96618E+07     8346.4         1328.4        1.82811E-03     0.0000    
      55      7.11883E+07     8437.3         1342.8        1.72500E-03     0.0000    
      56      7.40220E+07     8603.6         1369.3        1.89555E-03     0.0000    
      57      7.84337E+07     8856.3         1409.5        1.78045E-03     0.0000    
      58      7.93201E+07     8906.2         1417.5        1.72500E-03     0.0000    
      59      8.28011E+07     9099.5         1448.2        1.99519E-03     0.0000    
      60      8.37310E+07     9150.5         1456.3        4.38015E-02     0.0000    
      61      8.45619E+07     9195.8         1463.5        3.39441E-02     0.0000    
      62      8.60324E+07     9275.4         1476.2        1.43452E-02     0.0000    
      63      8.70771E+07     9331.5         1485.2        2.83419E-03     0.0000    
      64      8.78504E+07     9372.9         1491.7        1.72500E-03     0.0000    
      65      8.84814E+07     9406.5         1497.1        4.36946E-03     0.0000    
      66      9.03100E+07     9503.2         1512.5        5.59033E-03     0.0000    
      67      9.23747E+07     9611.2         1529.7        2.49546E-03     0.0000    
      68      9.36908E+07     9679.4         1540.5        5.12526E-03     0.0000    
      69      9.66714E+07     9832.2         1564.8        2.59688E-03     0.0000    
      70      9.67707E+07     9837.2         1565.6        1.72500E-03     0.0000    
      71      9.77167E+07     9885.2         1573.3        2.92411E-03     0.0000    
      72      1.01070E+08     10053.         1600.0        2.94669E-03     0.0000    
      73      1.02294E+08     10114.         1609.7        2.33220E-03     0.0000    
      74      1.05751E+08     10284.         1636.7        2.99847E-03     0.0000    
      75      1.06072E+08     10299.         1639.2        1.72500E-03     0.0000    
      76      1.07169E+08     10352.         1647.6        2.18489E-03     0.0000    
      77      1.10734E+08     10523.         1674.8        2.86152E-03     0.0000    
      78      1.12265E+08     10596.         1686.3        2.26781E-03     0.0000    
      79      1.15746E+08     10759.         1712.3        1.72500E-03     0.0000    
      80      1.15971E+08     10769.         1713.9        2.43961E-03     0.0000    
      81      1.17570E+08     10843.         1725.7        2.16167E-03     0.0000    
      82      1.21403E+08     11018.         1753.6        2.22000E-03     0.0000    
      83      1.23088E+08     11095.         1765.7        2.17453E-03     0.0000    
      84      1.25782E+08     11215.         1785.0        1.72500E-03     0.0000    
      85      1.26984E+08     11269.         1793.5        2.13978E-03     0.0000    
      86      1.28813E+08     11350.         1806.3        2.19221E-03     0.0000    
      87      1.32699E+08     11520.         1833.4        2.09240E-03     0.0000    
      88      1.34708E+08     11606.         1847.2        2.13609E-03     0.0000    
      89      1.36171E+08     11669.         1857.2        1.72500E-03     0.0000    
      90      1.38568E+08     11771.         1873.5        1.99091E-03     0.0000    
      91      1.40712E+08     11862.         1887.9        2.17048E-03     0.0000    
      92      1.44607E+08     12025.         1913.9        1.98848E-03     0.0000    
      93      1.46787E+08     12116.         1928.2        2.02983E-03     0.0000    
      94      1.46902E+08     12120.         1929.0        1.72500E-03     0.0000    
      95      1.50783E+08     12279.         1954.3        1.99964E-03     0.0000    
      96      1.52959E+08     12368.         1968.4        1.98121E-03     0.0000    
      97      1.57022E+08     12531.         1994.3        1.94808E-03     0.0000    
      98      1.57965E+08     12568.         2000.3        1.72500E-03     0.0000    
      99      1.59262E+08     12620.         2008.5        1.99994E-03     0.0000    
     100      1.63321E+08     12780.         2034.0        1.94491E-03     0.0000    


          P A R T I C I P A T I O N   F A C T O R S

 MODE NO    X-COMPONENT    Y-COMPONENT    Z-COMPONENT    X-ROTATION     Y-ROTATION     Z-ROTATION 

       1     -3.91283E-16     1.5651         0.0000         0.0000         0.0000        -172.26    
       2      5.27799E-15   -0.86531         0.0000         0.0000         0.0000         767.27    
       3      3.31434E-14    0.50495         0.0000         0.0000         0.0000        -509.83    
       4     -6.27318E-14   -0.35879         0.0000         0.0000         0.0000         382.05    
       5       1.2732        5.02600E-14     0.0000         0.0000         0.0000       -5.55176E-11
       6     -5.32459E-13    0.27688         0.0000         0.0000         0.0000        -303.34    
       7      8.57732E-14   -0.22446         0.0000         0.0000         0.0000         250.33    
       8      8.56916E-15    0.18794         0.0000         0.0000         0.0000        -212.18    
       9     -0.42433       -2.45870E-13     0.0000         0.0000         0.0000        2.81096E-10
      10      8.96321E-13   -0.16098         0.0000         0.0000         0.0000         183.39    
      11     -1.24042E-13    0.14023         0.0000         0.0000         0.0000        -160.85    
      12     -2.50994E-13   -0.12373         0.0000         0.0000         0.0000         142.71    
      13      0.25452       -5.41517E-14     0.0000         0.0000         0.0000        6.31537E-11
      14      6.47161E-14    0.11028         0.0000         0.0000         0.0000        -127.76    
      15      4.95404E-14   -9.90833E-02     0.0000         0.0000         0.0000         115.21    
      16     -0.18171        5.84632E-13     0.0000         0.0000         0.0000       -6.78220E-10
      17      1.31122E-12    8.96015E-02     0.0000         0.0000         0.0000        -104.51    
      18     -8.52526E-13   -8.14569E-02     0.0000         0.0000         0.0000         95.264    
      19      0.14124        2.94745E-13     0.0000         0.0000         0.0000       -3.44427E-10
      20     -4.27041E-15    7.43756E-02     0.0000         0.0000         0.0000        -87.185    
      21     -1.24914E-11   -6.81547E-02     0.0000         0.0000         0.0000         80.056    
      22     -0.11546        5.50040E-12     0.0000         0.0000         0.0000       -6.46056E-09
      23     -1.39065E-12    6.26408E-02     0.0000         0.0000         0.0000        -73.712    
      24      3.46303E-12   -5.77159E-02     0.0000         0.0000         0.0000         68.026    
      25      9.76009E-02    7.69563E-13     0.0000         0.0000         0.0000       -9.04071E-10
      26     -1.99590E-13    5.32874E-02     0.0000         0.0000         0.0000        -62.898    
      27     -8.44896E-02    5.01537E-12     0.0000         0.0000         0.0000       -5.93010E-09
      28      1.19708E-11    4.94214E-02     0.0000         0.0000         0.0000        -58.411    
      29     -7.07048E-13    4.65916E-02     0.0000         0.0000         0.0000        -55.132    
      30      7.44509E-02    2.02561E-13     0.0000         0.0000         0.0000       -2.41832E-10
      31     -1.26960E-13    4.34809E-02     0.0000         0.0000         0.0000        -51.507    
      32      1.01163E-12    4.01547E-02     0.0000         0.0000         0.0000        -47.614    
      33     -6.65144E-02   -2.19935E-12     0.0000         0.0000         0.0000        2.62300E-09
      34     -2.07156E-12    3.77442E-02     0.0000         0.0000         0.0000        -44.797    
      35     -3.28665E-12    3.65000E-02     0.0000         0.0000         0.0000        -43.358    
      36      6.00797E-02    4.84716E-13     0.0000         0.0000         0.0000       -5.58780E-10
      37      1.95609E-12    3.51277E-02     0.0000         0.0000         0.0000        -41.761    
      38     -5.47548E-02   -1.39112E-12     0.0000         0.0000         0.0000        1.67114E-09
      39     -1.00583E-11    3.36498E-02     0.0000         0.0000         0.0000        -40.033    
      40     -1.32356E-10    3.20871E-02     0.0000         0.0000         0.0000        -38.201    
      41      5.02734E-02    5.69655E-11     0.0000         0.0000         0.0000       -6.76570E-08
      42     -1.39993E-10    3.04588E-02     0.0000         0.0000         0.0000        -36.286    
      43     -1.27347E-10    2.87816E-02     0.0000         0.0000         0.0000        -34.309    
      44     -4.64480E-02   -1.23982E-11     0.0000         0.0000         0.0000        1.39708E-08
      45      1.74523E-11    2.70706E-02     0.0000         0.0000         0.0000        -32.289    
      46      2.09436E-11    2.53388E-02     0.0000         0.0000         0.0000        -30.241    
      47      4.31430E-02    2.31482E-12     0.0000         0.0000         0.0000       -2.68271E-09
      48      2.62062E-13    2.40961E-02     0.0000         0.0000         0.0000        -28.773    
      49     -4.02574E-02   -1.38156E-11     0.0000         0.0000         0.0000        1.63564E-08
      50     -4.30206E-11   -2.35764E-02     0.0000         0.0000         0.0000         28.168    
      51     -8.53405E-12    2.23257E-02     0.0000         0.0000         0.0000        -26.687    
      52      3.77152E-02   -7.17183E-13     0.0000         0.0000         0.0000        7.90947E-10
      53     -5.97472E-12   -2.06405E-02     0.0000         0.0000         0.0000         24.686    
      54      9.43838E-13    2.00687E-02     0.0000         0.0000         0.0000        -24.015    
      55     -3.54573E-02    4.96692E-12     0.0000         0.0000         0.0000       -5.92721E-09
      56     -1.51052E-12   -1.88825E-02     0.0000         0.0000         0.0000         22.609    
      57      1.28931E-12    1.86230E-02     0.0000         0.0000         0.0000        -22.313    
      58      3.34377E-02   -4.81376E-11     0.0000         0.0000         0.0000        5.74234E-08
      59     -7.62253E-14   -1.62602E-02     0.0000         0.0000         0.0000         19.503    
      60     -5.53775E-14   -6.53566E-04     0.0000         0.0000         0.0000        0.77753    
      61      1.68685E-14   -6.70398E-04     0.0000         0.0000         0.0000        0.81843    
      62     -4.03750E-15    1.60646E-03     0.0000         0.0000         0.0000        -1.8967    
      63      2.40903E-14    1.07368E-02     0.0000         0.0000         0.0000        -12.934    
      64     -3.16197E-02   -2.31721E-10     0.0000         0.0000         0.0000        2.76186E-07
      65     -5.42390E-14    6.03185E-03     0.0000         0.0000         0.0000        -7.1721    
      66     -1.83817E-15    4.21926E-03     0.0000         0.0000         0.0000        -5.1325    
      67     -1.73373E-14    1.14509E-02     0.0000         0.0000         0.0000        -13.667    
      68     -1.03070E-15   -4.36058E-03     0.0000         0.0000         0.0000         5.3175    
      69     -2.79380E-14    9.47772E-03     0.0000         0.0000         0.0000        -11.273    
      70      2.99738E-02    6.21897E-11     0.0000         0.0000         0.0000       -7.41073E-08
      71     -1.77208E-15   -7.99360E-03     0.0000         0.0000         0.0000         9.7000    
      72      1.17350E-15   -7.46812E-03     0.0000         0.0000         0.0000         8.8460    
      73      9.62118E-16   -1.00296E-02     0.0000         0.0000         0.0000         12.148    
      74      8.48809E-18    7.07318E-03     0.0000         0.0000         0.0000        -8.3650    
      75     -2.84758E-02    7.06508E-11     0.0000         0.0000         0.0000       -8.42933E-08
      76     -3.20701E-16   -1.02660E-02     0.0000         0.0000         0.0000         12.438    
      77     -3.11906E-16   -7.28242E-03     0.0000         0.0000         0.0000         8.6113    
      78     -5.74021E-16    9.64978E-03     0.0000         0.0000         0.0000        -11.702    
      79      2.71062E-02    1.33256E-10     0.0000         0.0000         0.0000       -1.58710E-07
      80     -4.20543E-15    8.04420E-03     0.0000         0.0000         0.0000        -9.5171    
      81     -1.24334E-16    9.31264E-03     0.0000         0.0000         0.0000        -11.308    
      82      9.27331E-18   -8.60611E-03     0.0000         0.0000         0.0000         10.190    
      83     -3.45627E-16    8.66887E-03     0.0000         0.0000         0.0000        -10.542    
      84     -2.58484E-02    1.31214E-10     0.0000         0.0000         0.0000       -1.56350E-07
      85     -1.39538E-16    8.82455E-03     0.0000         0.0000         0.0000        -10.455    
      86     -7.54814E-21   -8.12523E-03     0.0000         0.0000         0.0000         9.8938    
      87      9.85912E-18   -8.75813E-03     0.0000         0.0000         0.0000         10.377    
      88     -1.75599E-17   -7.95939E-03     0.0000         0.0000         0.0000         9.6961    
      89      2.46888E-02    1.29017E-11     0.0000         0.0000         0.0000       -1.53515E-08
      90      3.40548E-16   -8.59397E-03     0.0000         0.0000         0.0000         10.174    
      91      4.09302E-16    7.80817E-03     0.0000         0.0000         0.0000        -9.5087    
      92      1.15136E-16   -8.15551E-03     0.0000         0.0000         0.0000         9.6453    
      93     -6.88010E-15    7.95120E-03     0.0000         0.0000         0.0000        -9.6802    
      94     -2.36158E-02   -5.77414E-12     0.0000         0.0000         0.0000        6.87452E-09
      95      1.52920E-16    7.82423E-03     0.0000         0.0000         0.0000        -9.2493    
      96      9.16541E-16   -7.76598E-03     0.0000         0.0000         0.0000         9.4587    
      97      1.28558E-16    7.70564E-03     0.0000         0.0000         0.0000        -9.1091    
      98      2.26196E-02    2.88196E-11     0.0000         0.0000         0.0000       -3.43393E-08
      99      2.64538E-16   -7.44571E-03     0.0000         0.0000         0.0000         9.0727    
     100      5.35303E-16    7.35758E-03     0.0000         0.0000         0.0000        -8.6913    


                    E F F E C T I V E   M A S S

 MODE NO    X-COMPONENT    Y-COMPONENT    Z-COMPONENT    X-ROTATION     Y-ROTATION     Z-ROTATION 

       1      1.32199E-34    2.11507E-03     0.0000         0.0000         0.0000         25.623    
       2      2.42352E-32    6.51405E-04     0.0000         0.0000         0.0000         512.17    
       3      9.67478E-31    2.24566E-04     0.0000         0.0000         0.0000         228.93    
       4      3.52753E-30    1.15393E-04     0.0000         0.0000         0.0000         130.84    
       5      2.79635E-03    4.35747E-30     0.0000         0.0000         0.0000        5.31680E-24
       6      2.59792E-28    7.02482E-05     0.0000         0.0000         0.0000         84.315    
       7      6.91759E-30    4.73718E-05     0.0000         0.0000         0.0000         58.921    
       8      7.10677E-32    3.41839E-05     0.0000         0.0000         0.0000         43.573    
       9      3.10603E-04    1.04280E-28     0.0000         0.0000         0.0000        1.36301E-22
      10      8.02297E-28    2.58798E-05     0.0000         0.0000         0.0000         33.586    
      11      1.58847E-29    2.03014E-05     0.0000         0.0000         0.0000         26.711    
      12      6.73304E-29    1.63629E-05     0.0000         0.0000         0.0000         21.765    
      13      1.11744E-04    5.05840E-30     0.0000         0.0000         0.0000        6.87997E-24
      14      4.63868E-30    1.34702E-05     0.0000         0.0000         0.0000         18.077    
      15      2.81891E-30    1.12762E-05     0.0000         0.0000         0.0000         15.245    
      16      5.69557E-05    5.89596E-28     0.0000         0.0000         0.0000        7.93471E-22
      17      2.04888E-27    9.56750E-06     0.0000         0.0000         0.0000         13.016    
      18      8.98954E-28    8.20687E-06     0.0000         0.0000         0.0000         11.225    
      19      3.44093E-05    1.49858E-28     0.0000         0.0000         0.0000        2.04637E-22
      20      2.34168E-32    7.10311E-06     0.0000         0.0000         0.0000         9.7604    
      21      2.08055E-25    6.19363E-06     0.0000         0.0000         0.0000         8.5455    
      22      2.29964E-05    5.21889E-26     0.0000         0.0000         0.0000        7.19994E-20
      23      2.67834E-27    5.43430E-06     0.0000         0.0000         0.0000         7.5250    
      24      1.72566E-26    4.79328E-06     0.0000         0.0000         0.0000         6.6588    
      25      1.64322E-05    1.02159E-27     0.0000         0.0000         0.0000        1.40992E-21
      26      5.95819E-29    4.24705E-06     0.0000         0.0000         0.0000         5.9171    
      27      1.23139E-05    4.33905E-26     0.0000         0.0000         0.0000        6.06615E-20
      28      2.21651E-25    3.77792E-06     0.0000         0.0000         0.0000         5.2773    
      29      7.76621E-28    3.37230E-06     0.0000         0.0000         0.0000         4.7219    
      30      9.56155E-06    7.07786E-29     0.0000         0.0000         0.0000        1.00882E-22
      31      2.57442E-29    3.01957E-06     0.0000         0.0000         0.0000         4.2372    
      32      1.72090E-27    2.71134E-06     0.0000         0.0000         0.0000         3.8123    
      33      7.63170E-06    8.34406E-27     0.0000         0.0000         0.0000        1.18682E-20
      34      7.35247E-27    2.44083E-06     0.0000         0.0000         0.0000         3.4383    
      35      1.78583E-26    2.20252E-06     0.0000         0.0000         0.0000         3.1079    
      36      6.22650E-06    4.05288E-28     0.0000         0.0000         0.0000        5.38606E-22
      37      6.17649E-27    1.99188E-06     0.0000         0.0000         0.0000         2.8151    
      38      5.17170E-06    3.33823E-27     0.0000         0.0000         0.0000        4.81741E-21
      39      1.61285E-25    1.80511E-06     0.0000         0.0000         0.0000         2.5550    
      40      2.78882E-23    1.63905E-06     0.0000         0.0000         0.0000         2.3232    
      41      4.35979E-06    5.59774E-24     0.0000         0.0000         0.0000        7.89613E-18
      42      3.14968E-23    1.49100E-06     0.0000         0.0000         0.0000         2.1161    
      43      2.65986E-23    1.35867E-06     0.0000         0.0000         0.0000         1.9307    
      44      3.72155E-06    2.65158E-25     0.0000         0.0000         0.0000        3.36693E-19
      45      5.15426E-25    1.24011E-06     0.0000         0.0000         0.0000         1.7643    
      46      7.74452E-25    1.13361E-06     0.0000         0.0000         0.0000         1.6146    
      47      3.21077E-06    9.24323E-27     0.0000         0.0000         0.0000        1.24148E-20
      48      1.22743E-28    1.03773E-06     0.0000         0.0000         0.0000         1.4797    
      49      2.79564E-06    3.29252E-25     0.0000         0.0000         0.0000        4.61494E-19
      50      3.16700E-24    9.51155E-07     0.0000         0.0000         0.0000         1.3577    
      51      1.27525E-25    8.72758E-07     0.0000         0.0000         0.0000         1.2471    
      52      2.45370E-06    8.87255E-28     0.0000         0.0000         0.0000        1.07916E-21
      53      6.71568E-26    8.01482E-07     0.0000         0.0000         0.0000         1.1464    
      54      1.62854E-27    7.36279E-07     0.0000         0.0000         0.0000         1.0543    
      55      2.16871E-06    4.25562E-26     0.0000         0.0000         0.0000        6.06025E-20
      56      4.32504E-27    6.75859E-07     0.0000         0.0000         0.0000        0.96892    
      57      2.95970E-27    6.17487E-07     0.0000         0.0000         0.0000        0.88641    
      58      1.92869E-06    3.99722E-24     0.0000         0.0000         0.0000        5.68810E-18
      59      1.15926E-29    5.27518E-07     0.0000         0.0000         0.0000        0.75888    
      60      1.34325E-28    1.87098E-08     0.0000         0.0000         0.0000        2.64803E-02
      61      9.65871E-30    1.52556E-08     0.0000         0.0000         0.0000        2.27365E-02
      62      2.33846E-31    3.70206E-08     0.0000         0.0000         0.0000        5.16072E-02
      63      1.64481E-30    3.26720E-07     0.0000         0.0000         0.0000        0.47414    
      64      1.72467E-06    9.26234E-23     0.0000         0.0000         0.0000        1.31581E-16
      65      1.28544E-29    1.58975E-07     0.0000         0.0000         0.0000        0.22476    
      66      1.88890E-32    9.95198E-08     0.0000         0.0000         0.0000        0.14726    
      67      7.50086E-31    3.27212E-07     0.0000         0.0000         0.0000        0.46612    
      68      5.44476E-33    9.74549E-08     0.0000         0.0000         0.0000        0.14492    
      69      2.02695E-30    2.33271E-07     0.0000         0.0000         0.0000        0.33001    
      70      1.54978E-06    6.67154E-24     0.0000         0.0000         0.0000        9.47351E-18
      71      9.18252E-33    1.86843E-07     0.0000         0.0000         0.0000        0.27513    
      72      4.05791E-33    1.64345E-07     0.0000         0.0000         0.0000        0.23058    
      73      2.15885E-33    2.34600E-07     0.0000         0.0000         0.0000        0.34419    
      74      2.16033E-37    1.50013E-07     0.0000         0.0000         0.0000        0.20981    
      75      1.39876E-06    8.61040E-24     0.0000         0.0000         0.0000        1.22567E-17
      76      2.24714E-34    2.30269E-07     0.0000         0.0000         0.0000        0.33800    
      77      2.78384E-34    1.51757E-07     0.0000         0.0000         0.0000        0.21219    
      78      7.47244E-34    2.11174E-07     0.0000         0.0000         0.0000        0.31054    
      79      1.26744E-06    3.06313E-23     0.0000         0.0000         0.0000        4.34507E-17
      80      4.31461E-32    1.57865E-07     0.0000         0.0000         0.0000        0.22097    
      81      3.34170E-35    1.87472E-07     0.0000         0.0000         0.0000        0.27640    
      82      1.90907E-37    1.64424E-07     0.0000         0.0000         0.0000        0.23052    
      83      2.59765E-34    1.63415E-07     0.0000         0.0000         0.0000        0.24167    
      84      1.15254E-06    2.96995E-23     0.0000         0.0000         0.0000        4.21681E-17
      85      4.16635E-35    1.66631E-07     0.0000         0.0000         0.0000        0.23391    
      86      1.24900E-43    1.44728E-07     0.0000         0.0000         0.0000        0.21459    
      87      2.03385E-37    1.60497E-07     0.0000         0.0000         0.0000        0.22529    
      88      6.58663E-37    1.35326E-07     0.0000         0.0000         0.0000        0.20083    
      89      1.05145E-06    2.87134E-25     0.0000         0.0000         0.0000        4.06531E-19
      90      2.30892E-34    1.47041E-07     0.0000         0.0000         0.0000        0.20609    
      91      3.63617E-34    1.32329E-07     0.0000         0.0000         0.0000        0.19624    
      92      2.63600E-35    1.32259E-07     0.0000         0.0000         0.0000        0.18499    
      93      9.60836E-32    1.28329E-07     0.0000         0.0000         0.0000        0.19021    
      94      9.62043E-07    5.75126E-26     0.0000         0.0000         0.0000        8.15218E-20
      95      4.67607E-35    1.22415E-07     0.0000         0.0000         0.0000        0.17107    
      96      1.66431E-33    1.19488E-07     0.0000         0.0000         0.0000        0.17725    
      97      3.21962E-35    1.15671E-07     0.0000         0.0000         0.0000        0.16164    
      98      8.82586E-07    1.43273E-24     0.0000         0.0000         0.0000        2.03410E-18
      99      1.39956E-34    1.10874E-07     0.0000         0.0000         0.0000        0.16462    
     100      5.57313E-34    1.05286E-07     0.0000         0.0000         0.0000        0.14692    

 TOTAL        3.42102E-03    3.43052E-03     0.0000         0.0000         0.0000         1318.3    




                    E I G E N V A L U E    N U M B E R     1
  
  
  
  
                                       N O D E   O U T P U T
  
  
  
  
   THE FOLLOWING TABLE IS PRINTED FOR ALL NODES
  
       NODE FOOT-   U1          U2          UR3      
            NOTE
  
          2      1.5177E-16  1.8840E-04  2.3254E-05 
          3      1.7463E-16  7.2319E-04  4.6185E-05 
          4      1.6386E-16  1.5995E-03  6.8795E-05 
          5      9.9680E-17  2.8126E-03  9.1082E-05 
          6     -3.7014E-17  4.3576E-03  1.1305E-04 
          7     -1.1096E-16  6.2296E-03  1.3469E-04 
          8     -1.5922E-16  8.4238E-03  1.5601E-04 
          9     -1.8121E-16  1.0935E-02  1.7701E-04 
         10     -1.4383E-16  1.3760E-02  1.9768E-04 
         11     -6.6702E-17  1.6891E-02  2.1804E-04 
         12     -8.4636E-17  2.0326E-02  2.3807E-04 
         13      1.4539E-17  2.4059E-02  2.5778E-04 
         14      1.1274E-16  2.8085E-02  2.7717E-04 
         15      6.1743E-17  3.2400E-02  2.9624E-04 
         16     -5.7635E-17  3.6998E-02  3.1499E-04 
         17     -1.5952E-16  4.1875E-02  3.3341E-04 
         18     -2.3552E-16  4.7026E-02  3.5152E-04 
         19     -2.5136E-16  5.2446E-02  3.6931E-04 
         20     -1.8778E-16  5.8130E-02  3.8677E-04 
         21     -1.4697E-16  6.4074E-02  4.0392E-04 
         22     -8.7420E-17  7.0273E-02  4.2075E-04 
         23     -1.5360E-17  7.6722E-02  4.3726E-04 
         24      1.8027E-17  8.3416E-02  4.5345E-04 
         25      3.7103E-18  9.0351E-02  4.6933E-04 
         26     -4.4651E-17  9.7521E-02  4.8489E-04 
         27     -9.1070E-17  0.1049      5.0013E-04 
         28     -2.1174E-16  0.1126      5.1506E-04 
         29     -2.8314E-16  0.1204      5.2968E-04 
         30     -3.0757E-16  0.1285      5.4398E-04 
         31     -2.5507E-16  0.1367      5.5798E-04 
         32     -1.7434E-16  0.1452      5.7166E-04 
         33     -8.1095E-17  0.1539      5.8503E-04 
         34     -1.0154E-16  0.1628      5.9809E-04 
         35     -1.2238E-16  0.1719      6.1085E-04 
         36     -1.4450E-16  0.1812      6.2330E-04 
         37     -1.5813E-16  0.1906      6.3545E-04 
         38     -1.5842E-16  0.2002      6.4729E-04 
         39     -1.3931E-16  0.2101      6.5884E-04 
         40     -1.7731E-16  0.2200      6.7008E-04 
         41     -1.6714E-16  0.2302      6.8103E-04 
         42     -1.9412E-16  0.2405      6.9168E-04 
         43     -1.6290E-16  0.2510      7.0204E-04 
         44     -1.8729E-16  0.2616      7.1210E-04 
         45     -1.5654E-16  0.2723      7.2188E-04 
         46     -1.2355E-16  0.2832      7.3137E-04 
         47     -8.8033E-17  0.2943      7.4057E-04 
         48     -1.0660E-16  0.3055      7.4949E-04 
         49     -1.2605E-16  0.3168      7.5813E-04 
         50     -1.0241E-16  0.3283      7.6650E-04 
         51     -1.1933E-16  0.3398      7.7459E-04 
         52     -1.7183E-16  0.3515      7.8240E-04 
         53     -1.9513E-16  0.3633      7.8995E-04 
         54     -2.4175E-16  0.3752      7.9723E-04 
         55     -1.8927E-16  0.3873      8.0425E-04 
         56     -1.2480E-16  0.3994      8.1100E-04 
         57     -7.3109E-17  0.4116      8.1750E-04 
         58     -7.5270E-17  0.4239      8.2375E-04 
         59     -5.5414E-17  0.4363      8.2974E-04 
         60     -9.1418E-17  0.4488      8.3549E-04 
         61     -1.7656E-16  0.4614      8.4099E-04 
         62     -2.0464E-16  0.4741      8.4626E-04 
         63     -2.4167E-16  0.4868      8.5129E-04 
         64     -2.1776E-16  0.4996      8.5609E-04 
         65     -1.2343E-16  0.5125      8.6066E-04 
         66     -7.6115E-17  0.5255      8.6501E-04 
         67     -7.8277E-17  0.5385      8.6914E-04 
         68     -7.7805E-17  0.5516      8.7305E-04 
         69     -9.7093E-17  0.5647      8.7675E-04 
         70     -1.4936E-16  0.5779      8.8025E-04 
         71     -1.4097E-16  0.5911      8.8355E-04 
         72     -1.9559E-16  0.6044      8.8665E-04 
         73     -2.3045E-16  0.6177      8.8956E-04 
         74     -1.7149E-16  0.6311      8.9228E-04 
         75     -1.0068E-16  0.6445      8.9482E-04 
         76     -9.9692E-17  0.6580      8.9719E-04 
         77     -8.5760E-17  0.6715      8.9938E-04 
         78     -5.1104E-17  0.6850      9.0141E-04 
         79     -3.3488E-17  0.6985      9.0329E-04 
         80     -1.5809E-17  0.7121      9.0500E-04 
         81     -7.0435E-17  0.7257      9.0657E-04 
         82     -1.0613E-16  0.7393      9.0800E-04 
         83     -1.3470E-16  0.7529      9.0929E-04 
         84     -1.2059E-16  0.7666      9.1045E-04 
         85     -6.0533E-17  0.7802      9.1149E-04 
         86     -4.5681E-17  0.7939      9.1241E-04 
         87     -4.7266E-17  0.8076      9.1322E-04 
         88     -2.9707E-19  0.8213      9.1393E-04 
         89      1.0593E-17  0.8351      9.1454E-04 
         90     -9.6825E-17  0.8488      9.1505E-04 
         91     -1.4070E-16  0.8625      9.1549E-04 
         92     -1.5605E-16  0.8762      9.1584E-04 
         93     -1.2353E-16  0.8900      9.1613E-04 
         94     -3.2919E-17  0.9037      9.1636E-04 
         95      7.4362E-18  0.9175      9.1653E-04 
         96      2.9589E-17  0.9312      9.1665E-04 
         97      2.1569E-17  0.9450      9.1673E-04 
         98      4.4075E-17  0.9587      9.1678E-04 
         99      1.6485E-17  0.9725      9.1681E-04 
        100      6.4409E-17  0.9862      9.1682E-04 
        101      3.7301E-17   1.000      9.1682E-04 

 MAXIMUM         1.7463E-16   1.000      9.1682E-04
 AT NODE                 3         101         101

 MINIMUM        -3.0757E-16   0.000       0.000    
 AT NODE                30           1           1




                    E I G E N V A L U E    N U M B E R     2
  
  
  
  
                                       N O D E   O U T P U T
  
  
  
  
   THE FOLLOWING TABLE IS PRINTED FOR ALL NODES
  
       NODE FOOT-   U1          U2          UR3      
            NOTE
  
          2      7.0230E-16 -1.3697E-03 -1.4222E-04 
          3      9.4668E-16 -4.8202E-03 -2.7746E-04 
          4      6.0693E-16 -1.0247E-02 -4.0572E-04 
          5     -5.6348E-17 -1.7545E-02 -5.2701E-04 
          6     -9.2134E-16 -2.6610E-02 -6.4133E-04 
          7     -1.4525E-15 -3.7338E-02 -7.4868E-04 
          8     -1.8337E-15 -4.9623E-02 -8.4908E-04 
          9     -2.2434E-15 -6.3361E-02 -9.4254E-04 
         10     -2.3303E-15 -7.8448E-02 -1.0291E-03 
         11     -1.7139E-15 -9.4781E-02 -1.1087E-03 
         12     -1.0627E-15 -0.1123     -1.1815E-03 
         13     -1.3415E-16 -0.1308     -1.2474E-03 
         14      8.2110E-16 -0.1502     -1.3065E-03 
         15      1.1519E-15 -0.1705     -1.3589E-03 
         16      1.1356E-15 -0.1915     -1.4045E-03 
         17      1.2879E-15 -0.2132     -1.4436E-03 
         18      1.1111E-15 -0.2353     -1.4760E-03 
         19      9.7541E-16 -0.2580     -1.5019E-03 
[...]
         70      0.5225     -8.9393E-11 -2.6459E-12 
         71      0.7071     -1.4153E-10 -4.8966E-13 
         72      0.8526     -1.2974E-10  1.5539E-12 
         73      0.9511     -7.4934E-11  3.5296E-12 
         74      0.9969      5.5207E-12  3.2627E-12 
         75      0.9877      8.3147E-11  1.1582E-12 
         76      0.9239      1.5205E-10 -1.6696E-12 
         77      0.8090      1.3396E-10 -2.2866E-12 
         78      0.6494      7.8714E-11 -2.2825E-12 
         79      0.4540     -4.1800E-12 -1.5879E-12 
         80      0.2334     -8.7131E-11 -1.7565E-12 
         81     -1.7107E-11 -1.2457E-10 -1.0459E-12 
         82     -0.2334     -1.1603E-10 -3.0717E-13 
         83     -0.4540     -7.3832E-11  1.8250E-12 
         84     -0.6494     -1.6778E-11  4.2705E-12 
         85     -0.8090      4.2371E-11  3.4155E-12 
         86     -0.9239      9.8417E-11  1.7768E-12 
         87     -0.9877      1.3974E-10 -6.1522E-13 
         88     -0.9969      1.1228E-10 -1.2818E-12 
         89     -0.9511      3.6774E-11 -2.4163E-12 
         90     -0.8526     -5.4999E-11 -3.2405E-12 
         91     -0.7071     -1.2213E-10 -3.0404E-12 
         92     -0.5225     -1.3268E-10 -8.4805E-13 
         93     -0.3090     -1.0507E-10  1.6341E-12 
         94     -7.8459E-02 -6.4438E-11  2.8285E-12 
         95      0.1564      1.5931E-11  1.9956E-12 
         96      0.3827      9.4445E-11  3.5456E-13 
         97      0.5878      1.3207E-10 -8.5533E-13 
         98      0.7604      1.0741E-10 -2.9924E-12 
         99      0.8910      3.4569E-11 -4.8388E-12 
        100      0.9724     -6.2135E-11 -5.7519E-12 
        101       1.000     -1.4486E-10 -6.1563E-12 

 MAXIMUM          1.000      1.5205E-10  4.2705E-12
 AT NODE               101          76          84

 MINIMUM         -1.000     -1.4486E-10 -6.1563E-12
 AT NODE                61         101         101




                    E I G E N V A L U E    N U M B E R    28
  
  
  
  
                                       N O D E   O U T P U T
  
  
  
  
   THE FOLLOWING TABLE IS PRINTED FOR ALL NODES
  
       NODE FOOT-   U1          U2          UR3      
            NOTE
  
          2      3.2538E-11  0.4366      6.3343E-03 
          3      6.2116E-11  0.8284      4.2378E-03 
          4      8.7368E-11   1.000     -3.6147E-03 
          5      1.0627E-10  0.8661     -1.3087E-02 
          6      1.1783E-10  0.4581     -1.9874E-02 
          7      1.2267E-10 -8.9008E-02 -2.0919E-02 
          8      1.2156E-10 -0.5871     -1.5416E-02 
          9      1.1430E-10 -0.8630     -5.0418E-03 
         10      1.0176E-10 -0.8215      6.6904E-03 
         11      8.5147E-11 -0.4801      1.5717E-02 
         12      6.4466E-11  3.7169E-02  1.8899E-02 
         13      3.9347E-11  0.5438      1.5164E-02 
         14      1.0644E-11  0.8574      5.8942E-03 
         15     -1.8903E-11  0.8650     -5.5563E-03 
         16     -4.7612E-11  0.5635     -1.5063E-02 
         17     -7.4196E-11  6.0724E-02 -1.9206E-02 
         18     -9.6418E-11 -0.4634     -1.6488E-02 
         19     -1.1207E-10 -0.8213     -7.8785E-03 
         20     -1.2045E-10 -0.8846      3.5438E-03 
         21     -1.2129E-10 -0.6309      1.3689E-02 
         22     -1.1567E-10 -0.1510      1.8924E-02 
         23     -1.0483E-10  0.3831      1.7375E-02 
         24     -8.9524E-11  0.7799      9.5973E-03 
         25     -7.0508E-11  0.8973     -1.6207E-03 
         26     -4.8816E-11  0.6932     -1.2259E-02 
         27     -2.4468E-11  0.2407     -1.8506E-02 
         28      3.1801E-12 -0.2980     -1.8122E-02 
         29      3.1813E-11 -0.7300     -1.1245E-02 
         30      5.8601E-11 -0.9003     -3.3863E-04 
         31      8.2503E-11 -0.7481      1.0688E-02 
         32      1.0273E-10 -0.3278      1.7886E-02 
         33      1.1639E-10  0.2100      1.8674E-02 
         34      1.2256E-10  0.6725      1.2771E-02 
         35      1.2241E-10  0.8940      2.2915E-03 
         36      1.1686E-10  0.7952     -9.0088E-03 
         37      1.0468E-10  0.4115     -1.7081E-02 
         38      8.6183E-11 -0.1197     -1.9033E-02 
         39      6.3006E-11 -0.6080     -1.4165E-02 
         40      3.6373E-11 -0.8784     -4.2209E-03 
         41      6.1650E-12 -0.8341      7.2352E-03 
         42     -2.5929E-11 -0.4909      1.6099E-02 
         43     -5.6577E-11  2.8223E-02  1.9194E-02 
         44     -8.3829E-11  0.5372      1.5411E-02 
         45     -1.0587E-10  0.8537      6.1064E-03 
         46     -1.2065E-10  0.8643     -5.3864E-03 
         47     -1.2636E-10  0.5652     -1.4949E-02 
         48     -1.2344E-10  6.3565E-02 -1.9155E-02 
         49     -1.1403E-10 -0.4609     -1.6498E-02 
         50     -9.9999E-11 -0.8201     -7.9285E-03 
         51     -8.2881E-11 -0.8855      3.4816E-03 
         52     -6.2937E-11 -0.6336      1.3644E-02 
         53     -3.9436E-11 -0.1547      1.8918E-02 
         54     -1.2974E-11  0.3797      1.7413E-02 
         55      1.4442E-11  0.7780      9.6681E-03 
         56      4.1866E-11  0.8976     -1.5406E-03 
         57      6.7479E-11  0.6955     -1.2197E-02 
         58      8.9296E-11  0.2442     -1.8483E-02 
         59      1.0639E-10 -0.2946     -1.8147E-02 
         60      1.1765E-10 -0.7278     -1.1307E-02 
         61      1.2193E-10 -0.9003     -4.1638E-04 
         62      1.1873E-10 -0.7501      1.0624E-02 
         63      1.0881E-10 -0.3312      1.7857E-02 
         64      9.3050E-11  0.2064      1.8692E-02 
         65      7.2553E-11  0.6700      1.2829E-02 
         66      4.7529E-11  0.8936      2.3690E-03 
         67      2.0308E-11  0.7969     -8.9398E-03 
         68     -7.8692E-12  0.4147     -1.7045E-02 
         69     -3.5540E-11 -0.1161     -1.9043E-02 
         70     -6.1419E-11 -0.6053     -1.4217E-02 
         71     -8.3567E-11 -0.8776     -4.2974E-03 
         72     -1.0009E-10 -0.8355      7.1623E-03 
         73     -1.0988E-10 -0.4940      1.6055E-02 
         74     -1.1389E-10  2.4546E-02  1.9195E-02 
         75     -1.1221E-10  0.5343      1.5456E-02 
         76     -1.0465E-10  0.8525      6.1786E-03 
         77     -9.2573E-11  0.8653     -5.3141E-03 
         78     -7.6966E-11  0.5680     -1.4904E-02 
         79     -5.7292E-11  6.7113E-02 -1.9155E-02 
         80     -3.2395E-11 -0.4579     -1.6546E-02 
         81     -4.4681E-12 -0.8188     -8.0118E-03 
         82      2.4825E-11 -0.8865      3.3870E-03 
         83      5.3520E-11 -0.6367      1.3563E-02 
         84      7.9037E-11 -0.1590      1.8867E-02 
         85      9.9099E-11  0.3754      1.7391E-02 
         86      1.1147E-10  0.7747      9.6561E-03 
         87      1.1516E-10  0.8958     -1.5783E-03 
         88      1.1109E-10  0.6948     -1.2305E-02 
         89      1.0055E-10  0.2433     -1.8706E-02 
         90      8.5075E-11 -0.2975     -1.8527E-02 
         91      6.6717E-11 -0.7350     -1.1887E-02 
         92      4.7028E-11 -0.9138     -1.2451E-03 
         93      2.6243E-11 -0.7719      9.4672E-03 
         94      4.4095E-12 -0.3633      1.6242E-02 
         95     -1.7342E-11  0.1611      1.6403E-02 
         96     -3.8034E-11  0.6069      9.5328E-03 
         97     -5.7556E-11  0.8048     -2.4302E-03 
         98     -7.5947E-11  0.6703     -1.5961E-02 
         99     -9.1318E-11  0.2313     -2.7318E-02 
        100     -1.0172E-10 -0.3838     -3.4041E-02 
        101     -1.0528E-10 -0.9972     -3.6061E-02 

 MAXIMUM         1.2267E-10   1.000      1.9195E-02
 AT NODE                 7           4          74

 MINIMUM        -1.2636E-10 -0.9972     -3.6061E-02
 AT NODE                47         101         101




                    E I G E N V A L U E    N U M B E R    29
  
  
  
  
                                       N O D E   O U T P U T
  
  
  
  
   THE FOLLOWING TABLE IS PRINTED FOR ALL NODES
  
       NODE FOOT-   U1          U2          UR3      
            NOTE
  
          2     -3.2870E-12  0.4710      6.0127E-03 
          3     -5.9583E-12  0.8684      2.9311E-03 
          4     -7.4250E-12   1.000     -5.9152E-03 
          5     -7.7655E-12  0.7897     -1.5586E-02 
          6     -7.1506E-12  0.3040     -2.1271E-02 
          7     -6.1190E-12 -0.2770     -2.0047E-02 
          8     -5.0837E-12 -0.7316     -1.1929E-02 
          9     -3.9957E-12 -0.8859      1.9915E-04 
         10     -3.1734E-12 -0.6825      1.1770E-02 
         11     -3.1032E-12 -0.2044      1.8368E-02 
         12     -3.0307E-12  0.3582      1.7493E-02 
         13     -2.2674E-12  0.7820      9.5600E-03 
         14     -8.4718E-13  0.8989     -2.2514E-03 
         15      9.8149E-13  0.6623     -1.3247E-02 
         16      2.8608E-12  0.1652     -1.9064E-02 
         17      4.4244E-12 -0.3966     -1.7392E-02 
         18      5.8164E-12 -0.8014     -8.8796E-03 
         19      6.4470E-12 -0.8898      3.1209E-03 
         20      5.9085E-12 -0.6268      1.3879E-02 
         21      4.9965E-12 -0.1163      1.9152E-02 
         22      3.8148E-12  0.4402      1.6862E-02 
         23      2.8055E-12  0.8230      7.9140E-03 
         24      2.4862E-12  0.8811     -4.1596E-03 
         25      2.4290E-12  0.5915     -1.4593E-02 
         26      2.7979E-12  6.8480E-02 -1.9269E-02 
         27      2.9718E-12 -0.4815     -1.6341E-02 
         28      2.1080E-12 -0.8415     -6.9651E-03 
         29      6.8876E-13 -0.8694      5.1595E-03 
         30     -8.0869E-13 -0.5541      1.5248E-02 
         31     -2.5822E-12 -2.0243E-02  1.9318E-02 
         32     -4.3290E-12  0.5216      1.5765E-02 
         33     -5.5562E-12  0.8577      5.9903E-03 
         34     -6.4549E-12  0.8552     -6.1486E-03 
         35     -6.8879E-12  0.5153     -1.5861E-02 
         36     -7.2509E-12 -2.8019E-02 -1.9314E-02 
         37     -7.5286E-12 -0.5603     -1.5145E-02 
         38     -7.0382E-12 -0.8714     -4.9993E-03 
         39     -5.9401E-12 -0.8387      7.1195E-03 
         40     -4.1524E-12 -0.4749      1.6429E-02 
         41     -1.4852E-12  7.6205E-02  1.9254E-02 
         42      1.9308E-12  0.5973      1.4482E-02 
         43      5.1468E-12  0.8826      3.9938E-03 
         44      7.9858E-12  0.8197     -8.0701E-03 
         45      9.7425E-12  0.4332     -1.6949E-02 
         46      1.0120E-11 -0.1242     -1.9140E-02 
         47      8.9400E-12 -0.6326     -1.3777E-02 
         48      6.5946E-12 -0.8913     -2.9769E-03 
         49      4.1506E-12 -0.7984      8.9976E-03 
         50      2.4044E-12 -0.3903      1.7421E-02 
         51      1.2859E-12  0.1718      1.8970E-02 
         52      5.0272E-13  0.6661      1.3032E-02 
         53      6.9581E-14  0.8975      1.9514E-03 
         54     -3.5078E-13  0.7747     -9.8994E-03 
         55     -1.1307E-12  0.3462     -1.7844E-02 
         56     -2.1789E-12 -0.2189     -1.8746E-02 
         57     -3.3248E-12 -0.6977     -1.2250E-02 
         58     -4.2406E-12 -0.9011     -9.2041E-04 
         59     -4.6651E-12 -0.7489      1.0773E-02 
         60     -4.7373E-12 -0.3012      1.8215E-02 
         61     -4.7201E-12  0.2654      1.8468E-02 
         62     -4.4781E-12  0.7273      1.1434E-02 
         63     -3.9917E-12  0.9021     -1.1323E-04 
         64     -3.2712E-12  0.7209     -1.1615E-02 
         65     -2.2853E-12  0.2553     -1.8534E-02 
         66     -1.0670E-12 -0.3111     -1.8138E-02 
         67      2.1079E-13 -0.7548     -1.0584E-02 
         68      1.5552E-12 -0.9005      1.1467E-03 
         69      2.7432E-12 -0.6909      1.2425E-02 
         70      3.7711E-12 -0.2086      1.8800E-02 
         71      4.0756E-12  0.3560      1.7756E-02 
         72      3.4510E-12  0.7801      9.7046E-03 
         73      2.5954E-12  0.8964     -2.1760E-03 
         74      1.8065E-12  0.6589     -1.3198E-02 
         75      1.0183E-12  0.1614     -1.9010E-02 
         76      8.7267E-13 -0.3998     -1.7320E-02 
         77      1.4142E-12 -0.8032     -8.7939E-03 
         78      1.9551E-12 -0.8896      3.2043E-03 
         79      2.4095E-12 -0.6249      1.3940E-02 
         80      2.0227E-12 -0.1136      1.9178E-02 
         81      5.3488E-13  0.4427      1.6851E-02 
         82     -1.6301E-12  0.8243      7.8812E-03 
         83     -3.5264E-12  0.8808     -4.1896E-03 
         84     -5.2709E-12  0.5899     -1.4593E-02 
         85     -5.8375E-12  6.6569E-02 -1.9218E-02 
         86     -4.8528E-12 -0.4826     -1.6229E-02 
         87     -2.7259E-12 -0.8406     -6.7932E-03 
         88      1.1199E-13 -0.8658      5.3858E-03 
         89      3.0265E-12 -0.5478      1.5530E-02 
         90      4.9889E-12 -1.1474E-02  1.9678E-02 
         91      5.8832E-12  0.5326      1.6253E-02 
         92      5.4661E-12  0.8713      6.6948E-03 
         93      4.0412E-12  0.8729     -5.0947E-03 
         94      2.0550E-12  0.5400     -1.4275E-02 
         95      2.3913E-15  8.6473E-03 -1.6949E-02 
         96     -1.8907E-12 -0.5049     -1.1660E-02 
         97     -3.0316E-12 -0.7882      8.7305E-05 
         98     -3.2833E-12 -0.7151      1.4510E-02 
         99     -3.0427E-12 -0.2939      2.7160E-02 
        100     -2.4646E-12  0.3396      3.4857E-02 
        101     -2.0808E-12  0.9796      3.7209E-02 

 MAXIMUM         1.0120E-11   1.000      3.7209E-02
 AT NODE                46           4         101

 MINIMUM        -7.7655E-12 -0.9011     -2.1271E-02
 AT NODE                 5          58           6




                    E I G E N V A L U E    N U M B E R    30
  
  
  
  
                                       N O D E   O U T P U T
  
  
  
  
   THE FOLLOWING TABLE IS PRINTED FOR ALL NODES
  
       NODE FOOT-   U1          U2          UR3      
            NOTE
  
          2      0.2639      1.1493E-11  3.6579E-13 
          3      0.5090      1.5546E-11  1.7031E-13 
          4      0.7181     -3.3960E-12  2.8780E-13 
          5      0.8763     -1.4813E-11  1.7541E-13 
          6      0.9724     -5.7517E-12 -1.4796E-13 
          7      0.9995      3.5680E-12 -9.0556E-14 
          8      0.9558      2.3880E-12  4.7483E-14 
          9      0.8443      1.3766E-12  6.7476E-14 
         10      0.6730     -1.4310E-12  4.2496E-13 
         11      0.4540     -8.9447E-13  4.2775E-13 
         12      0.2028      6.6415E-12  2.8080E-13 
         13     -6.2791E-02  7.2063E-12  8.0076E-14 
         14     -0.3239     -5.6914E-13 -3.3852E-14 
         15     -0.5621     -5.0114E-12 -1.8039E-13 
         16     -0.7604     -5.7265E-12 -8.5969E-14 
         17     -0.9048     -4.1141E-12  8.7823E-14 
         18     -0.9851     -1.4716E-12  2.7385E-13 
         19     -0.9956     -4.1852E-12  4.3070E-13 
         20     -0.9354      9.8974E-13  5.5269E-13 
         21     -0.8090      8.1775E-12  6.0963E-14 
         22     -0.6252      5.2519E-12 -2.4262E-13 
         23     -0.3971     -1.5247E-12 -6.1639E-13 
         24     -0.1409     -1.3559E-12 -3.5242E-13 
         25      0.1253      2.5111E-12 -2.6800E-13 
         26      0.3827      3.3960E-12 -2.0289E-13 
         27      0.6129     -4.9019E-12 -1.9785E-13 
         28      0.7997     -1.2202E-11 -9.9080E-14 
         29      0.9298     -1.1028E-11  1.0985E-13 
         30      0.9940      2.1008E-12  6.5452E-14 
         31      0.9877      1.2793E-11  8.2518E-14 
         32      0.9114      1.1403E-11 -7.2212E-14 
         33      0.7705      3.6571E-12 -1.2826E-13 
         34      0.5750      4.8777E-12 -5.3153E-14 
         35      0.3387      4.4027E-12  8.0928E-14 
         36      7.8459E-02 -5.5880E-12  1.8863E-14 
         37     -0.1874     -1.7013E-11  2.7858E-13 
         38     -0.4399     -1.3101E-11  5.3103E-13 
         39     -0.6613     -3.0503E-12  5.2920E-13 
         40     -0.8358      1.0337E-11  5.0389E-13 
         41     -0.9511      1.4900E-11  1.0206E-13 
         42     -0.9989      4.9256E-12 -2.9797E-13 
         43     -0.9759     -2.5040E-12 -3.6286E-13 
         44     -0.8838     -5.5744E-13 -2.9029E-13 
         45     -0.7290     -4.2333E-13 -3.7312E-13 
         46     -0.5225     -5.9313E-12 -2.5482E-13 
         47     -0.2790     -1.0008E-11 -5.1773E-14 
         48     -1.5707E-02 -9.0901E-12  4.2766E-13 
         49      0.2487      2.3992E-12  4.6033E-13 
         50      0.4955      1.3102E-11  6.5649E-14 
         51      0.7071      1.0901E-11 -2.6785E-13 
         52      0.8686     -1.0863E-12 -3.8424E-13 
         53      0.9686     -3.1238E-12 -3.5784E-13 
         54      0.9999      3.5947E-12  2.9294E-15 
         55      0.9603      3.4341E-12  2.5987E-13 
         56      0.8526     -4.0464E-12  1.7144E-13 
         57      0.6845     -9.8243E-12  3.1665E-13 
         58      0.4679     -1.2847E-11  1.0564E-13 
         59      0.2181     -5.5642E-12 -7.2084E-15 
         60     -4.7106E-02  1.0496E-11 -2.8023E-13 
         61     -0.3090      1.5646E-11 -2.4277E-13 
         62     -0.5490      9.3321E-12 -1.7352E-13 
         63     -0.7501     -9.1840E-13 -7.4841E-14 
         64     -0.8980     -6.3550E-12  2.6521E-13 
         65     -0.9823     -5.2264E-12  5.5160E-13 
         66     -0.9969     -3.1363E-12  3.3928E-13 
         67     -0.9409     -3.9096E-12 -8.0823E-15 
         68     -0.8181     -2.9845E-12 -4.4530E-14 
         69     -0.6374      3.5864E-12  2.1443E-13 
         70     -0.4115      6.4847E-12 -1.3582E-14 
         71     -0.1564      3.2410E-12 -2.1807E-13 
         72      0.1097     -8.9952E-13 -2.1199E-14 
         73      0.3681     -5.5109E-12  1.1684E-13 
         74      0.6004     -7.3408E-12 -1.6950E-13 
         75      0.7902      4.1418E-13 -3.2439E-13 
         76      0.9239      9.4729E-12 -5.4387E-13 
         77      0.9921      2.7227E-12 -4.9915E-13 
         78      0.9900     -4.5443E-12 -1.1974E-14 
         79      0.9178     -5.2021E-12  1.5344E-13 
         80      0.7804     -1.3500E-12  2.7692E-13 
         81      0.5878      3.9280E-12  7.6466E-14 
         82      0.3535      6.1162E-12 -3.1542E-13 
         83      9.4108E-02  4.2801E-12 -1.5893E-13 
         84     -0.1719      2.4047E-12  2.6590E-13 
         85     -0.4258     -5.0632E-12  2.9683E-13 
         86     -0.6494     -7.8526E-12  2.6377E-13 
         87     -0.8271     -7.4504E-13  1.4346E-13 
         88     -0.9461      1.9419E-12  1.1806E-13 
         89     -0.9980      3.4074E-15  1.7079E-13 
         90     -0.9792     -1.3350E-12 -5.8644E-14 
         91     -0.8910     -3.7435E-13 -2.5259E-13 
         92     -0.7396      3.1271E-12 -2.9380E-13 
         93     -0.5358      2.8413E-12 -3.7067E-13 
         94     -0.2940     -4.4360E-12 -2.5619E-13 
         95     -3.1411E-02 -4.7656E-12 -2.5595E-13 
         96      0.2334     -1.3755E-12 -2.3128E-13 
         97      0.4818      1.6202E-12 -2.7816E-13 
         98      0.6959      4.5480E-12 -4.5699E-13 
         99      0.8607      7.0516E-13 -2.9064E-13 
        100      0.9646     -1.0953E-12 -2.1977E-13 
        101       1.000      4.7958E-12 -1.6980E-13 

 MAXIMUM          1.000      1.5646E-11  5.5269E-13
 AT NODE               101          61          20

 MINIMUM        -0.9989     -1.7013E-11 -6.1639E-13
 AT NODE                42          37          23


          THE ANALYSIS HAS BEEN COMPLETED



                              ANALYSIS COMPLETE



     JOB TIME SUMMARY
       USER TIME (SEC)      =  0.60000    
       SYSTEM TIME (SEC)    =  0.20000    
       TOTAL CPU TIME (SEC) =  0.80000    
       WALLCLOCK TIME (SEC) =          1
