*Heading
** Job name: BenuliBeam Model name: Model-1
** Generated by: Abaqus/CAE Student Edition 6.12-2
*Preprint, echo=NO, model=NO, history=NO, contact=NO
**
** PARTS
**
*Part, name=Part-1
*Node
      1,       -1200.,           0.
      2,       -1185.,           0.
      3,       -1170.,           0.
      4,       -1155.,           0.
      5,       -1140.,           0.
      6,       -1125.,           0.
      7,       -1110.,           0.
      8,       -1095.,           0.
      9,       -1080.,           0.
     10,       -1065.,           0.
     11,       -1050.,           0.
     12,       -1035.,           0.
     13,       -1020.,           0.
     14,       -1005.,           0.
     15,        -990.,           0.
     16,        -975.,           0.
     17,        -960.,           0.
     18,        -945.,           0.
     19,        -930.,           0.
     20,        -915.,           0.
** ... 81 like lines cut
*Element, type=B21
  1,   1,   2
  2,   2,   3
  3,   3,   4
  4,   4,   5
  5,   5,   6
  6,   6,   7
  7,   7,   8
  8,   8,   9
  9,   9,  10
 10,  10,  11
 11,  11,  12
 12,  12,  13
 13,  13,  14
 14,  14,  15
 15,  15,  16
 16,  16,  17
 17,  17,  18
 18,  18,  19
 19,  19,  20
 20,  20,  21
** ... 80 like lines cut
*Nset, nset=Set-1, generate
   1,  101,    1
*Elset, elset=Set-1, generate
   1,  100,    1
** Section: Section-1  Profile: Profile-1
*Beam Section, elset=Set-1, material=rubber, temperature=GRADIENTS, section=RECT
50., 50.
0.,0.,-1.
*End Part
**  
**
** ASSEMBLY
**
*Assembly, name=Assembly
**  
*Instance, name=Part-1-1, part=Part-1
*End Instance
**  
*Nset, nset=Set-1, instance=Part-1-1
 1,
*End Assembly
** 
** MATERIALS
** 
*Material, name=rubber
*Density
 9.2e-10,
*Elastic
50., 0.3
** ----------------------------------------------------------------
**
** MASS&Stiffness
**
*Step
*MATRIX GENERATE, MASS, STIFFNESS
*MATRIX OUTPUT, MASS, STIFFNESS
*END Step
** 
** STEP: Step-1
** 
*Step, name=Step-2, perturbation
eigenFrequency
*Frequency, eigensolver=Lanczos, acoustic coupling=on, normalization=displacement
100, , , , , 
** 
** BOUNDARY CONDITIONS
** 
** Name: fixLeft Type: Displacement/Rotation
*Boundary
Set-1, 1, 1
Set-1, 2, 2
Set-1, 6, 6
**
** OUTPUT REQUESTS
**
*Restart, write, frequency=0
**
** FIELD OUTPUT: F-Output-2
**
*Output, field, variable=PRESELECT
*Output, Field
*Node Print, Mode=1, Last Mode=30
U
*End Step