1

   Abaqus 6.12-2                                  Date 11-Dec-2013   Time 19:41:35
   



     PROCESSING PART, INSTANCE, AND ASSEMBLY INFORMATION
   *******************************************************


     END PROCESSING PART, INSTANCE, AND ASSEMBLY INFORMATION
   ***********************************************************




     OPTIONS BEING PROCESSED
   ***************************


  *Heading
          analysis the eigen frequecies of the crank and get the mass and stiffness matrix                                                                                                                                                                                
  *Node
  *Element, type=C3D8R
  *Nset, nset=ASSEMBLY_CAT_131210_PLEUEL-1_BIGHOLELEFT
  *Nset, nset=ASSEMBLY_CAT_131210_PLEUEL-1_BIGHOLERIGHT
  *Nset, nset=ASSEMBLY_CAT_131210_PLEUEL-1_SET-2
  *Nset, nset=ASSEMBLY_CAT_131210_PLEUEL-1_THICKNESS
  *Elset, elset=ASSEMBLY_CAT_131210_PLEUEL-1_BIGHOLELEFT
  *Elset, elset=ASSEMBLY_CAT_131210_PLEUEL-1_BIGHOLERIGHT
  *Elset, elset=ASSEMBLY_CAT_131210_PLEUEL-1_SET-2
  *Elset, elset=ASSEMBLY_CAT_131210_PLEUEL-1_THICKNESS
  *Nset, nset=ASSEMBLY_SMALLHOLELEFT
  *Nset, nset=ASSEMBLY_SMALLHOLERIGHT
  *Elset, elset=ASSEMBLY_SMALLHOLELEFT
  *Elset, elset=ASSEMBLY_SMALLHOLERIGHT
  *material, name=STEEL
  *density
  *elastic
  *solidsection, elset=ASSEMBLY_CAT_131210_PLEUEL-1_SET-2, material=STEEL
  *boundary
  *boundary
  *solidsection, elset=ASSEMBLY_CAT_131210_PLEUEL-1_SET-2, material=STEEL
  *output, field, variable=PRESELECT
  *output, field
  *output, field, variable=PRESELECT
  *output, field
  *output, field, variable=PRESELECT
  *output, field
  *Step, name=Step-1
  *Step, name=FrequencyAnalysis_withConstrain, perturbation
  *frequency, eigensolver=LANCZOS, normalization=DISPLACEMENT, acousticcoupling=ON
  *output, field, variable=PRESELECT
  *output, field
  *Step, name=Step-1
  *Step, name=FrequencyAnalysis_withConstrain, perturbation
  *Step, name=Step-1
  *matrixgenerate, mass, stiffness
  *boundary
  *boundary
  *matrixoutput, mass, stiffness
  *endstep
  *Step, name=FrequencyAnalysis_withConstrain, perturbation
  *frequency, eigensolver=LANCZOS, normalization=DISPLACEMENT, acousticcoupling=ON
  *frequency, eigensolver=LANCZOS, normalization=DISPLACEMENT, acousticcoupling=ON
  *boundary
  *boundary
  *output, field, variable=PRESELECT
  *output, field
  *nodeprint, mode=1, lastmode=10
  *endstep
  *Step, name=Step-1
  *boundary

 ***WARNING: DEGREE OF FREEDOM 4 IS NOT ACTIVE IN THIS MODEL AND CAN NOT BE 
             RESTRAINED

 ***WARNING: DEGREE OF FREEDOM 5 IS NOT ACTIVE IN THIS MODEL AND CAN NOT BE 
             RESTRAINED

 ***WARNING: DEGREE OF FREEDOM 6 IS NOT ACTIVE IN THIS MODEL AND CAN NOT BE 
             RESTRAINED
  *boundary

 ***WARNING: DEGREE OF FREEDOM 4 IS NOT ACTIVE IN THIS MODEL AND CAN NOT BE 
             RESTRAINED

 ***WARNING: DEGREE OF FREEDOM 5 IS NOT ACTIVE IN THIS MODEL AND CAN NOT BE 
             RESTRAINED

 ***WARNING: DEGREE OF FREEDOM 6 IS NOT ACTIVE IN THIS MODEL AND CAN NOT BE 
             RESTRAINED
  *endstep
  *Step, name=FrequencyAnalysis_withConstrain, perturbation
  *frequency, eigensolver=LANCZOS, normalization=DISPLACEMENT, acousticcoupling=ON
  *frequency, eigensolver=LANCZOS, normalization=DISPLACEMENT, acousticcoupling=ON
  *boundary

 ***WARNING: DEGREE OF FREEDOM 4 IS NOT ACTIVE IN THIS MODEL AND CAN NOT BE 
             RESTRAINED

 ***WARNING: DEGREE OF FREEDOM 5 IS NOT ACTIVE IN THIS MODEL AND CAN NOT BE 
             RESTRAINED

 ***WARNING: DEGREE OF FREEDOM 6 IS NOT ACTIVE IN THIS MODEL AND CAN NOT BE 
             RESTRAINED
  *boundary

 ***WARNING: DEGREE OF FREEDOM 4 IS NOT ACTIVE IN THIS MODEL AND CAN NOT BE 
             RESTRAINED

 ***WARNING: DEGREE OF FREEDOM 5 IS NOT ACTIVE IN THIS MODEL AND CAN NOT BE 
             RESTRAINED

 ***WARNING: DEGREE OF FREEDOM 6 IS NOT ACTIVE IN THIS MODEL AND CAN NOT BE 
             RESTRAINED
  *endstep


                              E L E M E N T,   N O D E,   A N D   S U R F A C E   M A P S


Assembly name: ASSEMBLY
Number of instances: 1

ASSEMBLY LEVEL
  node sets:
    SMALLHOLELEFT:
      instance name: CAT_131210_PLEUEL-1
      number of nodes: 25
      nodes: 
        44 45 46 47 48 196 197 198 199 200 348 349 350 351 352 500 501
        502 503 504 652 653 654 655 656

    SMALLHOLERIGHT:
      instance name: CAT_131210_PLEUEL-1
      number of nodes: 25
      nodes: 
        41 42 43 44 45 193 194 195 196 197 345 346 347 348 349 497 498
        499 500 501 649 650 651 652 653

  element sets:
    SMALLHOLELEFT:
      instance name: CAT_131210_PLEUEL-1
      number of elements: 16
      elements: 
        20 21 49 50 141 142 170 171 262 263 291 292 383 384 412 413

    SMALLHOLERIGHT:
      instance name: CAT_131210_PLEUEL-1
      number of elements: 16
      elements: 
        22 23 46 70 143 144 167 191 264 265 288 312 385 386 409 433

  Surfaces:

INSTANCE LEVEL
  node sets:
    Instance name: CAT_131210_PLEUEL-1
      node set name: BIGHOLELEFT
        number of nodes: 65
        nodes: 
          28 29 30 31 32 33 34 35 36 37 38 39 40 180 181 182 183 184 185
          186 187 188 189 190 191 192 332 333 334 335 336 337 338 339
          340 341 342 343 344 484 485 486 487 488 489 490 491 492 493
          494 495 496 636 637 638 639 640 641 642 643 644 645 646 647
          648
      node set name: BIGHOLERIGHT
        number of nodes: 65
        nodes: 
          17 18 19 20 21 22 23 24 25 26 27 28 29 169 170 171 172 173 174
          175 176 177 178 179 180 181 321 322 323 324 325 326 327 328
          329 330 331 332 333 473 474 475 476 477 478 479 480 481 482
          483 484 485 625 626 627 628 629 630 631 632 633 634 635 636
          637
      node set name: SET-2
        number of nodes: 760
        nodes: 
          1 2 3 4 5 6 7 8 9 10 11 12 13 14 15 16 17 18 19 20 21 22 23 24
          25 26 27 28 29 30 31 32 33 34 35 36 37 38 39 40 41 42 43 44 45
          46 47 48 49 50 51 52 53 54 55 56 57 58 59 60 61 62 63 64 65 66
          67 68 69 70 71 72 73 74 75 76 77 78 79 80 81 82 83 84 85 86 87
          88 89 90 91 92 93 94 95 96 97 98 99 100 101 102 103 104 105
          106 107 108 109 110 111 112 113 114 115 116 117 118 119 120
          121 122 123 124 125 126 127 128 129 130 131 132 133 134 135
          136 137 138 139 140 141 142 143 144 145 146 147 148 149 150
          151 152 153 154 155 156 157 158 159 160 161 162 163 164 165
          166 167 168 169 170 171 172 173 174 175 176 177 178 179 180
          181 182 183 184 185 186 187 188 189 190 191 192 193 194 195
          196 197 198 199 200 201 202 203 204 205 206 207 208 209 210
          211 212 213 214 215 216 217 218 219 220 221 222 223 224 225
          226 227 228 229 230 231 232 233 234 235 236 237 238 239 240
          241 242 243 244 245 246 247 248 249 250 251 252 253 254 255
          256 257 258 259 260 261 262 263 264 265 266 267 268 269 270
          271 272 273 274 275 276 277 278 279 280 281 282 283 284 285
          286 287 288 289 290 291 292 293 294 295 296 297 298 299 300
          301 302 303 304 305 306 307 308 309 310 311 312 313 314 315
          316 317 318 319 320 321 322 323 324 325 326 327 328 329 330
          331 332 333 334 335 336 337 338 339 340 341 342 343 344 345
          346 347 348 349 350 351 352 353 354 355 356 357 358 359 360
          361 362 363 364 365 366 367 368 369 370 371 372 373 374 375
          376 377 378 379 380 381 382 383 384 385 386 387 388 389 390
          391 392 393 394 395 396 397 398 399 400 401 402 403 404 405
          406 407 408 409 410 411 412 413 414 415 416 417 418 419 420
          421 422 423 424 425 426 427 428 429 430 431 432 433 434 435
          436 437 438 439 440 441 442 443 444 445 446 447 448 449 450
          451 452 453 454 455 456 457 458 459 460 461 462 463 464 465
          466 467 468 469 470 471 472 473 474 475 476 477 478 479 480
          481 482 483 484 485 486 487 488 489 490 491 492 493 494 495
          496 497 498 499 500 501 502 503 504 505 506 507 508 509 510
          511 512 513 514 515 516 517 518 519 520 521 522 523 524 525
          526 527 528 529 530 531 532 533 534 535 536 537 538 539 540
          541 542 543 544 545 546 547 548 549 550 551 552 553 554 555
          556 557 558 559 560 561 562 563 564 565 566 567 568 569 570
          571 572 573 574 575 576 577 578 579 580 581 582 583 584 585
          586 587 588 589 590 591 592 593 594 595 596 597 598 599 600
          601 602 603 604 605 606 607 608 609 610 611 612 613 614 615
          616 617 618 619 620 621 622 623 624 625 626 627 628 629 630
          631 632 633 634 635 636 637 638 639 640 641 642 643 644 645
          646 647 648 649 650 651 652 653 654 655 656 657 658 659 660
          661 662 663 664 665 666 667 668 669 670 671 672 673 674 675
          676 677 678 679 680 681 682 683 684 685 686 687 688 689 690
          691 692 693 694 695 696 697 698 699 700 701 702 703 704 705
          706 707 708 709 710 711 712 713 714 715 716 717 718 719 720
          721 722 723 724 725 726 727 728 729 730 731 732 733 734 735
          736 737 738 739 740 741 742 743 744 745 746 747 748 749 750
          751 752 753 754 755 756 757 758 759 760
      node set name: THICKNESS
        number of nodes: 5
        nodes: 
          29 181 333 485 637

  element sets:
    Instance name: CAT_131210_PLEUEL-1
      element set name: BIGHOLELEFT
        number of elements: 48
        elements: 
          9 10 11 12 13 14 18 33 36 37 53 54 130 131 132 133 134 135 139
          154 157 158 174 175 251 252 253 254 255 256 260 275 278 279
          295 296 372 373 374 375 376 377 381 396 399 400 416 417
      element set name: BIGHOLERIGHT
        number of elements: 48
        elements: 
          1 2 3 4 6 25 26 27 40 43 52 55 122 123 124 125 127 146 147 148
          161 164 173 176 243 244 245 246 248 267 268 269 282 285 294
          297 364 365 366 367 369 388 389 390 403 406 415 418
      element set name: SET-2
        number of elements: 484
        elements: 
          1 2 3 4 5 6 7 8 9 10 11 12 13 14 15 16 17 18 19 20 21 22 23 24
          25 26 27 28 29 30 31 32 33 34 35 36 37 38 39 40 41 42 43 44 45
          46 47 48 49 50 51 52 53 54 55 56 57 58 59 60 61 62 63 64 65 66
          67 68 69 70 71 72 73 74 75 76 77 78 79 80 81 82 83 84 85 86 87
          88 89 90 91 92 93 94 95 96 97 98 99 100 101 102 103 104 105
          106 107 108 109 110 111 112 113 114 115 116 117 118 119 120
          121 122 123 124 125 126 127 128 129 130 131 132 133 134 135
          136 137 138 139 140 141 142 143 144 145 146 147 148 149 150
          151 152 153 154 155 156 157 158 159 160 161 162 163 164 165
          166 167 168 169 170 171 172 173 174 175 176 177 178 179 180
          181 182 183 184 185 186 187 188 189 190 191 192 193 194 195
          196 197 198 199 200 201 202 203 204 205 206 207 208 209 210
          211 212 213 214 215 216 217 218 219 220 221 222 223 224 225
          226 227 228 229 230 231 232 233 234 235 236 237 238 239 240
          241 242 243 244 245 246 247 248 249 250 251 252 253 254 255
          256 257 258 259 260 261 262 263 264 265 266 267 268 269 270
          271 272 273 274 275 276 277 278 279 280 281 282 283 284 285
          286 287 288 289 290 291 292 293 294 295 296 297 298 299 300
          301 302 303 304 305 306 307 308 309 310 311 312 313 314 315
          316 317 318 319 320 321 322 323 324 325 326 327 328 329 330
          331 332 333 334 335 336 337 338 339 340 341 342 343 344 345
          346 347 348 349 350 351 352 353 354 355 356 357 358 359 360
          361 362 363 364 365 366 367 368 369 370 371 372 373 374 375
          376 377 378 379 380 381 382 383 384 385 386 387 388 389 390
          391 392 393 394 395 396 397 398 399 400 401 402 403 404 405
          406 407 408 409 410 411 412 413 414 415 416 417 418 419 420
          421 422 423 424 425 426 427 428 429 430 431 432 433 434 435
          436 437 438 439 440 441 442 443 444 445 446 447 448 449 450
          451 452 453 454 455 456 457 458 459 460 461 462 463 464 465
          466 467 468 469 470 471 472 473 474 475 476 477 478 479 480
          481 482 483 484
      element set name: THICKNESS
        number of elements: 4
        elements: 
          43 164 285 406

  Surfaces:

GLOBAL TO LOCAL NODE AND ELEMENT MAPS
  Global     Local      
  node       node       
  number     number     
                        Instance name                                   
   1          1         CAT_131210_PLEUEL-1                             
   2          2         CAT_131210_PLEUEL-1                             
   3          3         CAT_131210_PLEUEL-1                             
   4          4         CAT_131210_PLEUEL-1                             
   5          5         CAT_131210_PLEUEL-1                             
   6          6         CAT_131210_PLEUEL-1                             
   7          7         CAT_131210_PLEUEL-1                             
   8          8         CAT_131210_PLEUEL-1                             
   9          9         CAT_131210_PLEUEL-1                             
   10         10        CAT_131210_PLEUEL-1                             
   11         11        CAT_131210_PLEUEL-1                             
   12         12        CAT_131210_PLEUEL-1                             
   13         13        CAT_131210_PLEUEL-1                             
   14         14        CAT_131210_PLEUEL-1                             
   15         15        CAT_131210_PLEUEL-1                             
   16         16        CAT_131210_PLEUEL-1                             
   17         17        CAT_131210_PLEUEL-1                             
   18         18        CAT_131210_PLEUEL-1                             
   19         19        CAT_131210_PLEUEL-1                             
   20         20        CAT_131210_PLEUEL-1                             
   21         21        CAT_131210_PLEUEL-1                             
   22         22        CAT_131210_PLEUEL-1                             
   23         23        CAT_131210_PLEUEL-1                             
   24         24        CAT_131210_PLEUEL-1                             
   25         25        CAT_131210_PLEUEL-1                             
   26         26        CAT_131210_PLEUEL-1                             
   27         27        CAT_131210_PLEUEL-1                             
   28         28        CAT_131210_PLEUEL-1                             
   29         29        CAT_131210_PLEUEL-1                             
   30         30        CAT_131210_PLEUEL-1                             
   31         31        CAT_131210_PLEUEL-1                             
   32         32        CAT_131210_PLEUEL-1                             
   33         33        CAT_131210_PLEUEL-1                             
   34         34        CAT_131210_PLEUEL-1                             
   35         35        CAT_131210_PLEUEL-1                             
   36         36        CAT_131210_PLEUEL-1                             
   37         37        CAT_131210_PLEUEL-1                             
   38         38        CAT_131210_PLEUEL-1                             
   39         39        CAT_131210_PLEUEL-1                             
   40         40        CAT_131210_PLEUEL-1                             
   41         41        CAT_131210_PLEUEL-1                             
   42         42        CAT_131210_PLEUEL-1                             
   43         43        CAT_131210_PLEUEL-1                             
   44         44        CAT_131210_PLEUEL-1                             
   45         45        CAT_131210_PLEUEL-1                             
   46         46        CAT_131210_PLEUEL-1                             
   47         47        CAT_131210_PLEUEL-1                             
   48         48        CAT_131210_PLEUEL-1                             
   49         49        CAT_131210_PLEUEL-1                             
   50         50        CAT_131210_PLEUEL-1                             
   51         51        CAT_131210_PLEUEL-1                             
   52         52        CAT_131210_PLEUEL-1                             
   53         53        CAT_131210_PLEUEL-1                             
   54         54        CAT_131210_PLEUEL-1                             
   55         55        CAT_131210_PLEUEL-1                             
   56         56        CAT_131210_PLEUEL-1                             
   57         57        CAT_131210_PLEUEL-1                             
   58         58        CAT_131210_PLEUEL-1                             
   59         59        CAT_131210_PLEUEL-1                             
   60         60        CAT_131210_PLEUEL-1                             
   61         61        CAT_131210_PLEUEL-1                             
   62         62        CAT_131210_PLEUEL-1                             
   63         63        CAT_131210_PLEUEL-1                             
   64         64        CAT_131210_PLEUEL-1                             
   65         65        CAT_131210_PLEUEL-1                             
   66         66        CAT_131210_PLEUEL-1                             
   67         67        CAT_131210_PLEUEL-1                             
   68         68        CAT_131210_PLEUEL-1                             
   69         69        CAT_131210_PLEUEL-1                             
   70         70        CAT_131210_PLEUEL-1                             
   71         71        CAT_131210_PLEUEL-1                             
   72         72        CAT_131210_PLEUEL-1                             
   73         73        CAT_131210_PLEUEL-1                             
   74         74        CAT_131210_PLEUEL-1                             
   75         75        CAT_131210_PLEUEL-1                             
   76         76        CAT_131210_PLEUEL-1                             
   77         77        CAT_131210_PLEUEL-1                             
   78         78        CAT_131210_PLEUEL-1                             
   79         79        CAT_131210_PLEUEL-1                             
   80         80        CAT_131210_PLEUEL-1                             
   81         81        CAT_131210_PLEUEL-1                             
   82         82        CAT_131210_PLEUEL-1                             
   83         83        CAT_131210_PLEUEL-1                             
   84         84        CAT_131210_PLEUEL-1                             
   85         85        CAT_131210_PLEUEL-1                             
   86         86        CAT_131210_PLEUEL-1                             
   87         87        CAT_131210_PLEUEL-1                             
   88         88        CAT_131210_PLEUEL-1                             
   89         89        CAT_131210_PLEUEL-1                             
   90         90        CAT_131210_PLEUEL-1                             
   91         91        CAT_131210_PLEUEL-1                             
   92         92        CAT_131210_PLEUEL-1                             
   93         93        CAT_131210_PLEUEL-1                             
   94         94        CAT_131210_PLEUEL-1                             
   95         95        CAT_131210_PLEUEL-1                             
   96         96        CAT_131210_PLEUEL-1                             
   97         97        CAT_131210_PLEUEL-1                             
   98         98        CAT_131210_PLEUEL-1                             
   99         99        CAT_131210_PLEUEL-1                             
   100        100       CAT_131210_PLEUEL-1                             
   101        101       CAT_131210_PLEUEL-1                             
   102        102       CAT_131210_PLEUEL-1                             
   103        103       CAT_131210_PLEUEL-1                             
   104        104       CAT_131210_PLEUEL-1                             
   105        105       CAT_131210_PLEUEL-1                             
   106        106       CAT_131210_PLEUEL-1                             
   107        107       CAT_131210_PLEUEL-1                             
   108        108       CAT_131210_PLEUEL-1                             
   109        109       CAT_131210_PLEUEL-1                             
   110        110       CAT_131210_PLEUEL-1                             
   111        111       CAT_131210_PLEUEL-1                             
   112        112       CAT_131210_PLEUEL-1                             
   113        113       CAT_131210_PLEUEL-1                             
   114        114       CAT_131210_PLEUEL-1                             
   115        115       CAT_131210_PLEUEL-1                             
   116        116       CAT_131210_PLEUEL-1                             
   117        117       CAT_131210_PLEUEL-1                             
   118        118       CAT_131210_PLEUEL-1                             
   119        119       CAT_131210_PLEUEL-1                             
   120        120       CAT_131210_PLEUEL-1                             
   121        121       CAT_131210_PLEUEL-1                             
   122        122       CAT_131210_PLEUEL-1                             
   123        123       CAT_131210_PLEUEL-1                             
   124        124       CAT_131210_PLEUEL-1                             
   125        125       CAT_131210_PLEUEL-1                             
   126        126       CAT_131210_PLEUEL-1                             
   127        127       CAT_131210_PLEUEL-1                             
   128        128       CAT_131210_PLEUEL-1                             
   129        129       CAT_131210_PLEUEL-1                             
   130        130       CAT_131210_PLEUEL-1                             
   131        131       CAT_131210_PLEUEL-1                             
   132        132       CAT_131210_PLEUEL-1                             
   133        133       CAT_131210_PLEUEL-1                             
   134        134       CAT_131210_PLEUEL-1                             
   135        135       CAT_131210_PLEUEL-1                             
   136        136       CAT_131210_PLEUEL-1                             
   137        137       CAT_131210_PLEUEL-1                             
   138        138       CAT_131210_PLEUEL-1                             
   139        139       CAT_131210_PLEUEL-1                             
   140        140       CAT_131210_PLEUEL-1                             
   141        141       CAT_131210_PLEUEL-1                             
   142        142       CAT_131210_PLEUEL-1                             
   143        143       CAT_131210_PLEUEL-1                             
   144        144       CAT_131210_PLEUEL-1                             
   145        145       CAT_131210_PLEUEL-1                             
   146        146       CAT_131210_PLEUEL-1                             
   147        147       CAT_131210_PLEUEL-1                             
   148        148       CAT_131210_PLEUEL-1                             
   149        149       CAT_131210_PLEUEL-1                             
   150        150       CAT_131210_PLEUEL-1                             
   151        151       CAT_131210_PLEUEL-1                             
   152        152       CAT_131210_PLEUEL-1                             
   153        153       CAT_131210_PLEUEL-1                             
   154        154       CAT_131210_PLEUEL-1                             
   155        155       CAT_131210_PLEUEL-1                             
   156        156       CAT_131210_PLEUEL-1                             
   157        157       CAT_131210_PLEUEL-1                             
   158        158       CAT_131210_PLEUEL-1                             
   159        159       CAT_131210_PLEUEL-1                             
   160        160       CAT_131210_PLEUEL-1                             
   161        161       CAT_131210_PLEUEL-1                             
   162        162       CAT_131210_PLEUEL-1                             
   163        163       CAT_131210_PLEUEL-1                             
   164        164       CAT_131210_PLEUEL-1                             
   165        165       CAT_131210_PLEUEL-1                             
   166        166       CAT_131210_PLEUEL-1                             
   167        167       CAT_131210_PLEUEL-1                             
   168        168       CAT_131210_PLEUEL-1                             
   169        169       CAT_131210_PLEUEL-1                             
   170        170       CAT_131210_PLEUEL-1                             
   171        171       CAT_131210_PLEUEL-1                             
   172        172       CAT_131210_PLEUEL-1                             
   173        173       CAT_131210_PLEUEL-1                             
   174        174       CAT_131210_PLEUEL-1                             
   175        175       CAT_131210_PLEUEL-1                             
   176        176       CAT_131210_PLEUEL-1                             
   177        177       CAT_131210_PLEUEL-1                             
   178        178       CAT_131210_PLEUEL-1                             
   179        179       CAT_131210_PLEUEL-1                             
   180        180       CAT_131210_PLEUEL-1                             
   181        181       CAT_131210_PLEUEL-1                             
   182        182       CAT_131210_PLEUEL-1                             
   183        183       CAT_131210_PLEUEL-1                             
   184        184       CAT_131210_PLEUEL-1                             
   185        185       CAT_131210_PLEUEL-1                             
   186        186       CAT_131210_PLEUEL-1                             
   187        187       CAT_131210_PLEUEL-1                             
   188        188       CAT_131210_PLEUEL-1                             
   189        189       CAT_131210_PLEUEL-1                             
   190        190       CAT_131210_PLEUEL-1                             
   191        191       CAT_131210_PLEUEL-1                             
   192        192       CAT_131210_PLEUEL-1                             
   193        193       CAT_131210_PLEUEL-1                             
   194        194       CAT_131210_PLEUEL-1                             
   195        195       CAT_131210_PLEUEL-1                             
   196        196       CAT_131210_PLEUEL-1                             
   197        197       CAT_131210_PLEUEL-1                             
   198        198       CAT_131210_PLEUEL-1                             
   199        199       CAT_131210_PLEUEL-1                             
   200        200       CAT_131210_PLEUEL-1                             
   201        201       CAT_131210_PLEUEL-1                             
   202        202       CAT_131210_PLEUEL-1                             
   203        203       CAT_131210_PLEUEL-1                             
   204        204       CAT_131210_PLEUEL-1                             
   205        205       CAT_131210_PLEUEL-1                             
   206        206       CAT_131210_PLEUEL-1                             
   207        207       CAT_131210_PLEUEL-1                             
   208        208       CAT_131210_PLEUEL-1                             
   209        209       CAT_131210_PLEUEL-1                             
   210        210       CAT_131210_PLEUEL-1                             
   211        211       CAT_131210_PLEUEL-1                             
   212        212       CAT_131210_PLEUEL-1                             
   213        213       CAT_131210_PLEUEL-1                             
   214        214       CAT_131210_PLEUEL-1                             
   215        215       CAT_131210_PLEUEL-1                             
   216        216       CAT_131210_PLEUEL-1                             
   217        217       CAT_131210_PLEUEL-1                             
   218        218       CAT_131210_PLEUEL-1                             
   219        219       CAT_131210_PLEUEL-1                             
   220        220       CAT_131210_PLEUEL-1                             
   221        221       CAT_131210_PLEUEL-1                             
   222        222       CAT_131210_PLEUEL-1                             
   223        223       CAT_131210_PLEUEL-1                             
   224        224       CAT_131210_PLEUEL-1                             
   225        225       CAT_131210_PLEUEL-1                             
   226        226       CAT_131210_PLEUEL-1                             
   227        227       CAT_131210_PLEUEL-1                             
   228        228       CAT_131210_PLEUEL-1                             
   229        229       CAT_131210_PLEUEL-1                             
   230        230       CAT_131210_PLEUEL-1                             
   231        231       CAT_131210_PLEUEL-1                             
   232        232       CAT_131210_PLEUEL-1                             
   233        233       CAT_131210_PLEUEL-1                             
   234        234       CAT_131210_PLEUEL-1                             
   235        235       CAT_131210_PLEUEL-1                             
   236        236       CAT_131210_PLEUEL-1                             
   237        237       CAT_131210_PLEUEL-1                             
   238        238       CAT_131210_PLEUEL-1                             
   239        239       CAT_131210_PLEUEL-1                             
   240        240       CAT_131210_PLEUEL-1                             
   241        241       CAT_131210_PLEUEL-1                             
   242        242       CAT_131210_PLEUEL-1                             
   243        243       CAT_131210_PLEUEL-1                             
   244        244       CAT_131210_PLEUEL-1                             
   245        245       CAT_131210_PLEUEL-1                             
   246        246       CAT_131210_PLEUEL-1                             
   247        247       CAT_131210_PLEUEL-1                             
   248        248       CAT_131210_PLEUEL-1                             
   249        249       CAT_131210_PLEUEL-1                             
   250        250       CAT_131210_PLEUEL-1                             
   251        251       CAT_131210_PLEUEL-1                             
   252        252       CAT_131210_PLEUEL-1                             
   253        253       CAT_131210_PLEUEL-1                             
   254        254       CAT_131210_PLEUEL-1                             
   255        255       CAT_131210_PLEUEL-1                             
   256        256       CAT_131210_PLEUEL-1                             
   257        257       CAT_131210_PLEUEL-1                             
   258        258       CAT_131210_PLEUEL-1                             
   259        259       CAT_131210_PLEUEL-1                             
   260        260       CAT_131210_PLEUEL-1                             
   261        261       CAT_131210_PLEUEL-1                             
   262        262       CAT_131210_PLEUEL-1                             
   263        263       CAT_131210_PLEUEL-1                             
   264        264       CAT_131210_PLEUEL-1                             
   265        265       CAT_131210_PLEUEL-1                             
   266        266       CAT_131210_PLEUEL-1                             
   267        267       CAT_131210_PLEUEL-1                             
   268        268       CAT_131210_PLEUEL-1                             
   269        269       CAT_131210_PLEUEL-1                             
   270        270       CAT_131210_PLEUEL-1                             
   271        271       CAT_131210_PLEUEL-1                             
   272        272       CAT_131210_PLEUEL-1                             
   273        273       CAT_131210_PLEUEL-1                             
   274        274       CAT_131210_PLEUEL-1                             
   275        275       CAT_131210_PLEUEL-1                             
   276        276       CAT_131210_PLEUEL-1                             
   277        277       CAT_131210_PLEUEL-1                             
   278        278       CAT_131210_PLEUEL-1                             
   279        279       CAT_131210_PLEUEL-1                             
   280        280       CAT_131210_PLEUEL-1                             
   281        281       CAT_131210_PLEUEL-1                             
   282        282       CAT_131210_PLEUEL-1                             
   283        283       CAT_131210_PLEUEL-1                             
   284        284       CAT_131210_PLEUEL-1                             
   285        285       CAT_131210_PLEUEL-1                             
   286        286       CAT_131210_PLEUEL-1                             
   287        287       CAT_131210_PLEUEL-1                             
   288        288       CAT_131210_PLEUEL-1                             
   289        289       CAT_131210_PLEUEL-1                             
   290        290       CAT_131210_PLEUEL-1                             
   291        291       CAT_131210_PLEUEL-1                             
   292        292       CAT_131210_PLEUEL-1                             
   293        293       CAT_131210_PLEUEL-1                             
   294        294       CAT_131210_PLEUEL-1                             
   295        295       CAT_131210_PLEUEL-1                             
   296        296       CAT_131210_PLEUEL-1                             
   297        297       CAT_131210_PLEUEL-1                             
   298        298       CAT_131210_PLEUEL-1                             
   299        299       CAT_131210_PLEUEL-1                             
   300        300       CAT_131210_PLEUEL-1                             
   301        301       CAT_131210_PLEUEL-1                             
   302        302       CAT_131210_PLEUEL-1                             
   303        303       CAT_131210_PLEUEL-1                             
   304        304       CAT_131210_PLEUEL-1                             
   305        305       CAT_131210_PLEUEL-1                             
   306        306       CAT_131210_PLEUEL-1                             
   307        307       CAT_131210_PLEUEL-1                             
   308        308       CAT_131210_PLEUEL-1                             
   309        309       CAT_131210_PLEUEL-1                             
   310        310       CAT_131210_PLEUEL-1                             
   311        311       CAT_131210_PLEUEL-1                             
   312        312       CAT_131210_PLEUEL-1                             
   313        313       CAT_131210_PLEUEL-1                             
   314        314       CAT_131210_PLEUEL-1                             
   315        315       CAT_131210_PLEUEL-1                             
   316        316       CAT_131210_PLEUEL-1                             
   317        317       CAT_131210_PLEUEL-1                             
   318        318       CAT_131210_PLEUEL-1                             
   319        319       CAT_131210_PLEUEL-1                             
   320        320       CAT_131210_PLEUEL-1                             
   321        321       CAT_131210_PLEUEL-1                             
   322        322       CAT_131210_PLEUEL-1                             
   323        323       CAT_131210_PLEUEL-1                             
   324        324       CAT_131210_PLEUEL-1                             
   325        325       CAT_131210_PLEUEL-1                             
   326        326       CAT_131210_PLEUEL-1                             
   327        327       CAT_131210_PLEUEL-1                             
   328        328       CAT_131210_PLEUEL-1                             
   329        329       CAT_131210_PLEUEL-1                             
   330        330       CAT_131210_PLEUEL-1                             
   331        331       CAT_131210_PLEUEL-1                             
   332        332       CAT_131210_PLEUEL-1                             
   333        333       CAT_131210_PLEUEL-1                             
   334        334       CAT_131210_PLEUEL-1                             
   335        335       CAT_131210_PLEUEL-1                             
   336        336       CAT_131210_PLEUEL-1                             
   337        337       CAT_131210_PLEUEL-1                             
   338        338       CAT_131210_PLEUEL-1                             
   339        339       CAT_131210_PLEUEL-1                             
   340        340       CAT_131210_PLEUEL-1                             
   341        341       CAT_131210_PLEUEL-1                             
   342        342       CAT_131210_PLEUEL-1                             
   343        343       CAT_131210_PLEUEL-1                             
   344        344       CAT_131210_PLEUEL-1                             
   345        345       CAT_131210_PLEUEL-1                             
   346        346       CAT_131210_PLEUEL-1                             
   347        347       CAT_131210_PLEUEL-1                             
   348        348       CAT_131210_PLEUEL-1                             
   349        349       CAT_131210_PLEUEL-1                             
   350        350       CAT_131210_PLEUEL-1                             
   351        351       CAT_131210_PLEUEL-1                             
   352        352       CAT_131210_PLEUEL-1                             
   353        353       CAT_131210_PLEUEL-1                             
   354        354       CAT_131210_PLEUEL-1                             
   355        355       CAT_131210_PLEUEL-1                             
   356        356       CAT_131210_PLEUEL-1                             
   357        357       CAT_131210_PLEUEL-1                             
   358        358       CAT_131210_PLEUEL-1                             
   359        359       CAT_131210_PLEUEL-1                             
   360        360       CAT_131210_PLEUEL-1                             
   361        361       CAT_131210_PLEUEL-1                             
   362        362       CAT_131210_PLEUEL-1                             
   363        363       CAT_131210_PLEUEL-1                             
   364        364       CAT_131210_PLEUEL-1                             
   365        365       CAT_131210_PLEUEL-1                             
   366        366       CAT_131210_PLEUEL-1                             
   367        367       CAT_131210_PLEUEL-1                             
   368        368       CAT_131210_PLEUEL-1                             
   369        369       CAT_131210_PLEUEL-1                             
   370        370       CAT_131210_PLEUEL-1                             
   371        371       CAT_131210_PLEUEL-1                             
   372        372       CAT_131210_PLEUEL-1                             
   373        373       CAT_131210_PLEUEL-1                             
   374        374       CAT_131210_PLEUEL-1                             
   375        375       CAT_131210_PLEUEL-1                             
   376        376       CAT_131210_PLEUEL-1                             
   377        377       CAT_131210_PLEUEL-1                             
   378        378       CAT_131210_PLEUEL-1                             
   379        379       CAT_131210_PLEUEL-1                             
   380        380       CAT_131210_PLEUEL-1                             
   381        381       CAT_131210_PLEUEL-1                             
   382        382       CAT_131210_PLEUEL-1                             
   383        383       CAT_131210_PLEUEL-1                             
   384        384       CAT_131210_PLEUEL-1                             
   385        385       CAT_131210_PLEUEL-1                             
   386        386       CAT_131210_PLEUEL-1                             
   387        387       CAT_131210_PLEUEL-1                             
   388        388       CAT_131210_PLEUEL-1                             
   389        389       CAT_131210_PLEUEL-1                             
   390        390       CAT_131210_PLEUEL-1                             
   391        391       CAT_131210_PLEUEL-1                             
   392        392       CAT_131210_PLEUEL-1                             
   393        393       CAT_131210_PLEUEL-1                             
   394        394       CAT_131210_PLEUEL-1                             
   395        395       CAT_131210_PLEUEL-1                             
   396        396       CAT_131210_PLEUEL-1                             
   397        397       CAT_131210_PLEUEL-1                             
   398        398       CAT_131210_PLEUEL-1                             
   399        399       CAT_131210_PLEUEL-1                             
   400        400       CAT_131210_PLEUEL-1                             
   401        401       CAT_131210_PLEUEL-1                             
   402        402       CAT_131210_PLEUEL-1                             
   403        403       CAT_131210_PLEUEL-1                             
   404        404       CAT_131210_PLEUEL-1                             
   405        405       CAT_131210_PLEUEL-1                             
   406        406       CAT_131210_PLEUEL-1                             
   407        407       CAT_131210_PLEUEL-1                             
   408        408       CAT_131210_PLEUEL-1                             
   409        409       CAT_131210_PLEUEL-1                             
   410        410       CAT_131210_PLEUEL-1                             
   411        411       CAT_131210_PLEUEL-1                             
   412        412       CAT_131210_PLEUEL-1                             
   413        413       CAT_131210_PLEUEL-1                             
   414        414       CAT_131210_PLEUEL-1                             
   415        415       CAT_131210_PLEUEL-1                             
   416        416       CAT_131210_PLEUEL-1                             
   417        417       CAT_131210_PLEUEL-1                             
   418        418       CAT_131210_PLEUEL-1                             
   419        419       CAT_131210_PLEUEL-1                             
   420        420       CAT_131210_PLEUEL-1                             
   421        421       CAT_131210_PLEUEL-1                             
   422        422       CAT_131210_PLEUEL-1                             
   423        423       CAT_131210_PLEUEL-1                             
   424        424       CAT_131210_PLEUEL-1                             
   425        425       CAT_131210_PLEUEL-1                             
   426        426       CAT_131210_PLEUEL-1                             
   427        427       CAT_131210_PLEUEL-1                             
   428        428       CAT_131210_PLEUEL-1                             
   429        429       CAT_131210_PLEUEL-1                             
   430        430       CAT_131210_PLEUEL-1                             
   431        431       CAT_131210_PLEUEL-1                             
   432        432       CAT_131210_PLEUEL-1                             
   433        433       CAT_131210_PLEUEL-1                             
   434        434       CAT_131210_PLEUEL-1                             
   435        435       CAT_131210_PLEUEL-1                             
   436        436       CAT_131210_PLEUEL-1                             
   437        437       CAT_131210_PLEUEL-1                             
   438        438       CAT_131210_PLEUEL-1                             
   439        439       CAT_131210_PLEUEL-1                             
   440        440       CAT_131210_PLEUEL-1                             
   441        441       CAT_131210_PLEUEL-1                             
   442        442       CAT_131210_PLEUEL-1                             
   443        443       CAT_131210_PLEUEL-1                             
   444        444       CAT_131210_PLEUEL-1                             
   445        445       CAT_131210_PLEUEL-1                             
   446        446       CAT_131210_PLEUEL-1                             
   447        447       CAT_131210_PLEUEL-1                             
   448        448       CAT_131210_PLEUEL-1                             
   449        449       CAT_131210_PLEUEL-1                             
   450        450       CAT_131210_PLEUEL-1                             
   451        451       CAT_131210_PLEUEL-1                             
   452        452       CAT_131210_PLEUEL-1                             
   453        453       CAT_131210_PLEUEL-1                             
   454        454       CAT_131210_PLEUEL-1                             
   455        455       CAT_131210_PLEUEL-1                             
   456        456       CAT_131210_PLEUEL-1                             
   457        457       CAT_131210_PLEUEL-1                             
   458        458       CAT_131210_PLEUEL-1                             
   459        459       CAT_131210_PLEUEL-1                             
   460        460       CAT_131210_PLEUEL-1                             
   461        461       CAT_131210_PLEUEL-1                             
   462        462       CAT_131210_PLEUEL-1                             
   463        463       CAT_131210_PLEUEL-1                             
   464        464       CAT_131210_PLEUEL-1                             
   465        465       CAT_131210_PLEUEL-1                             
   466        466       CAT_131210_PLEUEL-1                             
   467        467       CAT_131210_PLEUEL-1                             
   468        468       CAT_131210_PLEUEL-1                             
   469        469       CAT_131210_PLEUEL-1                             
   470        470       CAT_131210_PLEUEL-1                             
   471        471       CAT_131210_PLEUEL-1                             
   472        472       CAT_131210_PLEUEL-1                             
   473        473       CAT_131210_PLEUEL-1                             
   474        474       CAT_131210_PLEUEL-1                             
   475        475       CAT_131210_PLEUEL-1                             
   476        476       CAT_131210_PLEUEL-1                             
   477        477       CAT_131210_PLEUEL-1                             
   478        478       CAT_131210_PLEUEL-1                             
   479        479       CAT_131210_PLEUEL-1                             
   480        480       CAT_131210_PLEUEL-1                             
   481        481       CAT_131210_PLEUEL-1                             
   482        482       CAT_131210_PLEUEL-1                             
   483        483       CAT_131210_PLEUEL-1                             
   484        484       CAT_131210_PLEUEL-1                             
   485        485       CAT_131210_PLEUEL-1                             
   486        486       CAT_131210_PLEUEL-1                             
   487        487       CAT_131210_PLEUEL-1                             
   488        488       CAT_131210_PLEUEL-1                             
   489        489       CAT_131210_PLEUEL-1                             
   490        490       CAT_131210_PLEUEL-1                             
   491        491       CAT_131210_PLEUEL-1                             
   492        492       CAT_131210_PLEUEL-1                             
   493        493       CAT_131210_PLEUEL-1                             
   494        494       CAT_131210_PLEUEL-1                             
   495        495       CAT_131210_PLEUEL-1                             
   496        496       CAT_131210_PLEUEL-1                             
   497        497       CAT_131210_PLEUEL-1                             
   498        498       CAT_131210_PLEUEL-1                             
   499        499       CAT_131210_PLEUEL-1                             
   500        500       CAT_131210_PLEUEL-1                             
   501        501       CAT_131210_PLEUEL-1                             
   502        502       CAT_131210_PLEUEL-1                             
   503        503       CAT_131210_PLEUEL-1                             
   504        504       CAT_131210_PLEUEL-1                             
   505        505       CAT_131210_PLEUEL-1                             
   506        506       CAT_131210_PLEUEL-1                             
   507        507       CAT_131210_PLEUEL-1                             
   508        508       CAT_131210_PLEUEL-1                             
   509        509       CAT_131210_PLEUEL-1                             
   510        510       CAT_131210_PLEUEL-1                             
   511        511       CAT_131210_PLEUEL-1                             
   512        512       CAT_131210_PLEUEL-1                             
   513        513       CAT_131210_PLEUEL-1                             
   514        514       CAT_131210_PLEUEL-1                             
   515        515       CAT_131210_PLEUEL-1                             
   516        516       CAT_131210_PLEUEL-1                             
   517        517       CAT_131210_PLEUEL-1                             
   518        518       CAT_131210_PLEUEL-1                             
   519        519       CAT_131210_PLEUEL-1                             
   520        520       CAT_131210_PLEUEL-1                             
   521        521       CAT_131210_PLEUEL-1                             
   522        522       CAT_131210_PLEUEL-1                             
   523        523       CAT_131210_PLEUEL-1                             
   524        524       CAT_131210_PLEUEL-1                             
   525        525       CAT_131210_PLEUEL-1                             
   526        526       CAT_131210_PLEUEL-1                             
   527        527       CAT_131210_PLEUEL-1                             
   528        528       CAT_131210_PLEUEL-1                             
   529        529       CAT_131210_PLEUEL-1                             
   530        530       CAT_131210_PLEUEL-1                             
   531        531       CAT_131210_PLEUEL-1                             
   532        532       CAT_131210_PLEUEL-1                             
   533        533       CAT_131210_PLEUEL-1                             
   534        534       CAT_131210_PLEUEL-1                             
   535        535       CAT_131210_PLEUEL-1                             
   536        536       CAT_131210_PLEUEL-1                             
   537        537       CAT_131210_PLEUEL-1                             
   538        538       CAT_131210_PLEUEL-1                             
   539        539       CAT_131210_PLEUEL-1                             
   540        540       CAT_131210_PLEUEL-1                             
   541        541       CAT_131210_PLEUEL-1                             
   542        542       CAT_131210_PLEUEL-1                             
   543        543       CAT_131210_PLEUEL-1                             
   544        544       CAT_131210_PLEUEL-1                             
   545        545       CAT_131210_PLEUEL-1                             
   546        546       CAT_131210_PLEUEL-1                             
   547        547       CAT_131210_PLEUEL-1                             
   548        548       CAT_131210_PLEUEL-1                             
   549        549       CAT_131210_PLEUEL-1                             
   550        550       CAT_131210_PLEUEL-1                             
   551        551       CAT_131210_PLEUEL-1                             
   552        552       CAT_131210_PLEUEL-1                             
   553        553       CAT_131210_PLEUEL-1                             
   554        554       CAT_131210_PLEUEL-1                             
   555        555       CAT_131210_PLEUEL-1                             
   556        556       CAT_131210_PLEUEL-1                             
   557        557       CAT_131210_PLEUEL-1                             
   558        558       CAT_131210_PLEUEL-1                             
   559        559       CAT_131210_PLEUEL-1                             
   560        560       CAT_131210_PLEUEL-1                             
   561        561       CAT_131210_PLEUEL-1                             
   562        562       CAT_131210_PLEUEL-1                             
   563        563       CAT_131210_PLEUEL-1                             
   564        564       CAT_131210_PLEUEL-1                             
   565        565       CAT_131210_PLEUEL-1                             
   566        566       CAT_131210_PLEUEL-1                             
   567        567       CAT_131210_PLEUEL-1                             
   568        568       CAT_131210_PLEUEL-1                             
   569        569       CAT_131210_PLEUEL-1                             
   570        570       CAT_131210_PLEUEL-1                             
   571        571       CAT_131210_PLEUEL-1                             
   572        572       CAT_131210_PLEUEL-1                             
   573        573       CAT_131210_PLEUEL-1                             
   574        574       CAT_131210_PLEUEL-1                             
   575        575       CAT_131210_PLEUEL-1                             
   576        576       CAT_131210_PLEUEL-1                             
   577        577       CAT_131210_PLEUEL-1                             
   578        578       CAT_131210_PLEUEL-1                             
   579        579       CAT_131210_PLEUEL-1                             
   580        580       CAT_131210_PLEUEL-1                             
   581        581       CAT_131210_PLEUEL-1                             
   582        582       CAT_131210_PLEUEL-1                             
   583        583       CAT_131210_PLEUEL-1                             
   584        584       CAT_131210_PLEUEL-1                             
   585        585       CAT_131210_PLEUEL-1                             
   586        586       CAT_131210_PLEUEL-1                             
   587        587       CAT_131210_PLEUEL-1                             
   588        588       CAT_131210_PLEUEL-1                             
   589        589       CAT_131210_PLEUEL-1                             
   590        590       CAT_131210_PLEUEL-1                             
   591        591       CAT_131210_PLEUEL-1                             
   592        592       CAT_131210_PLEUEL-1                             
   593        593       CAT_131210_PLEUEL-1                             
   594        594       CAT_131210_PLEUEL-1                             
   595        595       CAT_131210_PLEUEL-1                             
   596        596       CAT_131210_PLEUEL-1                             
   597        597       CAT_131210_PLEUEL-1                             
   598        598       CAT_131210_PLEUEL-1                             
   599        599       CAT_131210_PLEUEL-1                             
   600        600       CAT_131210_PLEUEL-1                             
   601        601       CAT_131210_PLEUEL-1                             
   602        602       CAT_131210_PLEUEL-1                             
   603        603       CAT_131210_PLEUEL-1                             
   604        604       CAT_131210_PLEUEL-1                             
   605        605       CAT_131210_PLEUEL-1                             
   606        606       CAT_131210_PLEUEL-1                             
   607        607       CAT_131210_PLEUEL-1                             
   608        608       CAT_131210_PLEUEL-1                             
   609        609       CAT_131210_PLEUEL-1                             
   610        610       CAT_131210_PLEUEL-1                             
   611        611       CAT_131210_PLEUEL-1                             
   612        612       CAT_131210_PLEUEL-1                             
   613        613       CAT_131210_PLEUEL-1                             
   614        614       CAT_131210_PLEUEL-1                             
   615        615       CAT_131210_PLEUEL-1                             
   616        616       CAT_131210_PLEUEL-1                             
   617        617       CAT_131210_PLEUEL-1                             
   618        618       CAT_131210_PLEUEL-1                             
   619        619       CAT_131210_PLEUEL-1                             
   620        620       CAT_131210_PLEUEL-1                             
   621        621       CAT_131210_PLEUEL-1                             
   622        622       CAT_131210_PLEUEL-1                             
   623        623       CAT_131210_PLEUEL-1                             
   624        624       CAT_131210_PLEUEL-1                             
   625        625       CAT_131210_PLEUEL-1                             
   626        626       CAT_131210_PLEUEL-1                             
   627        627       CAT_131210_PLEUEL-1                             
   628        628       CAT_131210_PLEUEL-1                             
   629        629       CAT_131210_PLEUEL-1                             
   630        630       CAT_131210_PLEUEL-1                             
   631        631       CAT_131210_PLEUEL-1                             
   632        632       CAT_131210_PLEUEL-1                             
   633        633       CAT_131210_PLEUEL-1                             
   634        634       CAT_131210_PLEUEL-1                             
   635        635       CAT_131210_PLEUEL-1                             
   636        636       CAT_131210_PLEUEL-1                             
   637        637       CAT_131210_PLEUEL-1                             
   638        638       CAT_131210_PLEUEL-1                             
   639        639       CAT_131210_PLEUEL-1                             
   640        640       CAT_131210_PLEUEL-1                             
   641        641       CAT_131210_PLEUEL-1                             
   642        642       CAT_131210_PLEUEL-1                             
   643        643       CAT_131210_PLEUEL-1                             
   644        644       CAT_131210_PLEUEL-1                             
   645        645       CAT_131210_PLEUEL-1                             
   646        646       CAT_131210_PLEUEL-1                             
   647        647       CAT_131210_PLEUEL-1                             
   648        648       CAT_131210_PLEUEL-1                             
   649        649       CAT_131210_PLEUEL-1                             
   650        650       CAT_131210_PLEUEL-1                             
   651        651       CAT_131210_PLEUEL-1                             
   652        652       CAT_131210_PLEUEL-1                             
   653        653       CAT_131210_PLEUEL-1                             
   654        654       CAT_131210_PLEUEL-1                             
   655        655       CAT_131210_PLEUEL-1                             
   656        656       CAT_131210_PLEUEL-1                             
   657        657       CAT_131210_PLEUEL-1                             
   658        658       CAT_131210_PLEUEL-1                             
   659        659       CAT_131210_PLEUEL-1                             
   660        660       CAT_131210_PLEUEL-1                             
   661        661       CAT_131210_PLEUEL-1                             
   662        662       CAT_131210_PLEUEL-1                             
   663        663       CAT_131210_PLEUEL-1                             
   664        664       CAT_131210_PLEUEL-1                             
   665        665       CAT_131210_PLEUEL-1                             
   666        666       CAT_131210_PLEUEL-1                             
   667        667       CAT_131210_PLEUEL-1                             
   668        668       CAT_131210_PLEUEL-1                             
   669        669       CAT_131210_PLEUEL-1                             
   670        670       CAT_131210_PLEUEL-1                             
   671        671       CAT_131210_PLEUEL-1                             
   672        672       CAT_131210_PLEUEL-1                             
   673        673       CAT_131210_PLEUEL-1                             
   674        674       CAT_131210_PLEUEL-1                             
   675        675       CAT_131210_PLEUEL-1                             
   676        676       CAT_131210_PLEUEL-1                             
   677        677       CAT_131210_PLEUEL-1                             
   678        678       CAT_131210_PLEUEL-1                             
   679        679       CAT_131210_PLEUEL-1                             
   680        680       CAT_131210_PLEUEL-1                             
   681        681       CAT_131210_PLEUEL-1                             
   682        682       CAT_131210_PLEUEL-1                             
   683        683       CAT_131210_PLEUEL-1                             
   684        684       CAT_131210_PLEUEL-1                             
   685        685       CAT_131210_PLEUEL-1                             
   686        686       CAT_131210_PLEUEL-1                             
   687        687       CAT_131210_PLEUEL-1                             
   688        688       CAT_131210_PLEUEL-1                             
   689        689       CAT_131210_PLEUEL-1                             
   690        690       CAT_131210_PLEUEL-1                             
   691        691       CAT_131210_PLEUEL-1                             
   692        692       CAT_131210_PLEUEL-1                             
   693        693       CAT_131210_PLEUEL-1                             
   694        694       CAT_131210_PLEUEL-1                             
   695        695       CAT_131210_PLEUEL-1                             
   696        696       CAT_131210_PLEUEL-1                             
   697        697       CAT_131210_PLEUEL-1                             
   698        698       CAT_131210_PLEUEL-1                             
   699        699       CAT_131210_PLEUEL-1                             
   700        700       CAT_131210_PLEUEL-1                             
   701        701       CAT_131210_PLEUEL-1                             
   702        702       CAT_131210_PLEUEL-1                             
   703        703       CAT_131210_PLEUEL-1                             
   704        704       CAT_131210_PLEUEL-1                             
   705        705       CAT_131210_PLEUEL-1                             
   706        706       CAT_131210_PLEUEL-1                             
   707        707       CAT_131210_PLEUEL-1                             
   708        708       CAT_131210_PLEUEL-1                             
   709        709       CAT_131210_PLEUEL-1                             
   710        710       CAT_131210_PLEUEL-1                             
   711        711       CAT_131210_PLEUEL-1                             
   712        712       CAT_131210_PLEUEL-1                             
   713        713       CAT_131210_PLEUEL-1                             
   714        714       CAT_131210_PLEUEL-1                             
   715        715       CAT_131210_PLEUEL-1                             
   716        716       CAT_131210_PLEUEL-1                             
   717        717       CAT_131210_PLEUEL-1                             
   718        718       CAT_131210_PLEUEL-1                             
   719        719       CAT_131210_PLEUEL-1                             
   720        720       CAT_131210_PLEUEL-1                             
   721        721       CAT_131210_PLEUEL-1                             
   722        722       CAT_131210_PLEUEL-1                             
   723        723       CAT_131210_PLEUEL-1                             
   724        724       CAT_131210_PLEUEL-1                             
   725        725       CAT_131210_PLEUEL-1                             
   726        726       CAT_131210_PLEUEL-1                             
   727        727       CAT_131210_PLEUEL-1                             
   728        728       CAT_131210_PLEUEL-1                             
   729        729       CAT_131210_PLEUEL-1                             
   730        730       CAT_131210_PLEUEL-1                             
   731        731       CAT_131210_PLEUEL-1                             
   732        732       CAT_131210_PLEUEL-1                             
   733        733       CAT_131210_PLEUEL-1                             
   734        734       CAT_131210_PLEUEL-1                             
   735        735       CAT_131210_PLEUEL-1                             
   736        736       CAT_131210_PLEUEL-1                             
   737        737       CAT_131210_PLEUEL-1                             
   738        738       CAT_131210_PLEUEL-1                             
   739        739       CAT_131210_PLEUEL-1                             
   740        740       CAT_131210_PLEUEL-1                             
   741        741       CAT_131210_PLEUEL-1                             
   742        742       CAT_131210_PLEUEL-1                             
   743        743       CAT_131210_PLEUEL-1                             
   744        744       CAT_131210_PLEUEL-1                             
   745        745       CAT_131210_PLEUEL-1                             
   746        746       CAT_131210_PLEUEL-1                             
   747        747       CAT_131210_PLEUEL-1                             
   748        748       CAT_131210_PLEUEL-1                             
   749        749       CAT_131210_PLEUEL-1                             
   750        750       CAT_131210_PLEUEL-1                             
   751        751       CAT_131210_PLEUEL-1                             
   752        752       CAT_131210_PLEUEL-1                             
   753        753       CAT_131210_PLEUEL-1                             
   754        754       CAT_131210_PLEUEL-1                             
   755        755       CAT_131210_PLEUEL-1                             
   756        756       CAT_131210_PLEUEL-1                             
   757        757       CAT_131210_PLEUEL-1                             
   758        758       CAT_131210_PLEUEL-1                             
   759        759       CAT_131210_PLEUEL-1                             
   760        760       CAT_131210_PLEUEL-1                             

  Global     Local      
  element    element    
  number     number     
                        Instance name                                   
   1          1         CAT_131210_PLEUEL-1                             
   2          2         CAT_131210_PLEUEL-1                             
   3          3         CAT_131210_PLEUEL-1                             
   4          4         CAT_131210_PLEUEL-1                             
   5          5         CAT_131210_PLEUEL-1                             
   6          6         CAT_131210_PLEUEL-1                             
   7          7         CAT_131210_PLEUEL-1                             
   8          8         CAT_131210_PLEUEL-1                             
   9          9         CAT_131210_PLEUEL-1                             
   10         10        CAT_131210_PLEUEL-1                             
   11         11        CAT_131210_PLEUEL-1                             
   12         12        CAT_131210_PLEUEL-1                             
   13         13        CAT_131210_PLEUEL-1                             
   14         14        CAT_131210_PLEUEL-1                             
   15         15        CAT_131210_PLEUEL-1                             
   16         16        CAT_131210_PLEUEL-1                             
   17         17        CAT_131210_PLEUEL-1                             
   18         18        CAT_131210_PLEUEL-1                             
   19         19        CAT_131210_PLEUEL-1                             
   20         20        CAT_131210_PLEUEL-1                             
   21         21        CAT_131210_PLEUEL-1                             
   22         22        CAT_131210_PLEUEL-1                             
   23         23        CAT_131210_PLEUEL-1                             
   24         24        CAT_131210_PLEUEL-1                             
   25         25        CAT_131210_PLEUEL-1                             
   26         26        CAT_131210_PLEUEL-1                             
   27         27        CAT_131210_PLEUEL-1                             
   28         28        CAT_131210_PLEUEL-1                             
   29         29        CAT_131210_PLEUEL-1                             
   30         30        CAT_131210_PLEUEL-1                             
   31         31        CAT_131210_PLEUEL-1                             
   32         32        CAT_131210_PLEUEL-1                             
   33         33        CAT_131210_PLEUEL-1                             
   34         34        CAT_131210_PLEUEL-1                             
   35         35        CAT_131210_PLEUEL-1                             
   36         36        CAT_131210_PLEUEL-1                             
   37         37        CAT_131210_PLEUEL-1                             
   38         38        CAT_131210_PLEUEL-1                             
   39         39        CAT_131210_PLEUEL-1                             
   40         40        CAT_131210_PLEUEL-1                             
   41         41        CAT_131210_PLEUEL-1                             
   42         42        CAT_131210_PLEUEL-1                             
   43         43        CAT_131210_PLEUEL-1                             
   44         44        CAT_131210_PLEUEL-1                             
   45         45        CAT_131210_PLEUEL-1                             
   46         46        CAT_131210_PLEUEL-1                             
   47         47        CAT_131210_PLEUEL-1                             
   48         48        CAT_131210_PLEUEL-1                             
   49         49        CAT_131210_PLEUEL-1                             
   50         50        CAT_131210_PLEUEL-1                             
   51         51        CAT_131210_PLEUEL-1                             
   52         52        CAT_131210_PLEUEL-1                             
   53         53        CAT_131210_PLEUEL-1                             
   54         54        CAT_131210_PLEUEL-1                             
   55         55        CAT_131210_PLEUEL-1                             
   56         56        CAT_131210_PLEUEL-1                             
   57         57        CAT_131210_PLEUEL-1                             
   58         58        CAT_131210_PLEUEL-1                             
   59         59        CAT_131210_PLEUEL-1                             
   60         60        CAT_131210_PLEUEL-1                             
   61         61        CAT_131210_PLEUEL-1                             
   62         62        CAT_131210_PLEUEL-1                             
   63         63        CAT_131210_PLEUEL-1                             
   64         64        CAT_131210_PLEUEL-1                             
   65         65        CAT_131210_PLEUEL-1                             
   66         66        CAT_131210_PLEUEL-1                             
   67         67        CAT_131210_PLEUEL-1                             
   68         68        CAT_131210_PLEUEL-1                             
   69         69        CAT_131210_PLEUEL-1                             
   70         70        CAT_131210_PLEUEL-1                             
   71         71        CAT_131210_PLEUEL-1                             
   72         72        CAT_131210_PLEUEL-1                             
   73         73        CAT_131210_PLEUEL-1                             
   74         74        CAT_131210_PLEUEL-1                             
   75         75        CAT_131210_PLEUEL-1                             
   76         76        CAT_131210_PLEUEL-1                             
   77         77        CAT_131210_PLEUEL-1                             
   78         78        CAT_131210_PLEUEL-1                             
   79         79        CAT_131210_PLEUEL-1                             
   80         80        CAT_131210_PLEUEL-1                             
   81         81        CAT_131210_PLEUEL-1                             
   82         82        CAT_131210_PLEUEL-1                             
   83         83        CAT_131210_PLEUEL-1                             
   84         84        CAT_131210_PLEUEL-1                             
   85         85        CAT_131210_PLEUEL-1                             
   86         86        CAT_131210_PLEUEL-1                             
   87         87        CAT_131210_PLEUEL-1                             
   88         88        CAT_131210_PLEUEL-1                             
   89         89        CAT_131210_PLEUEL-1                             
   90         90        CAT_131210_PLEUEL-1                             
   91         91        CAT_131210_PLEUEL-1                             
   92         92        CAT_131210_PLEUEL-1                             
   93         93        CAT_131210_PLEUEL-1                             
   94         94        CAT_131210_PLEUEL-1                             
   95         95        CAT_131210_PLEUEL-1                             
   96         96        CAT_131210_PLEUEL-1                             
   97         97        CAT_131210_PLEUEL-1                             
   98         98        CAT_131210_PLEUEL-1                             
   99         99        CAT_131210_PLEUEL-1                             
   100        100       CAT_131210_PLEUEL-1                             
   101        101       CAT_131210_PLEUEL-1                             
   102        102       CAT_131210_PLEUEL-1                             
   103        103       CAT_131210_PLEUEL-1                             
   104        104       CAT_131210_PLEUEL-1                             
   105        105       CAT_131210_PLEUEL-1                             
   106        106       CAT_131210_PLEUEL-1                             
   107        107       CAT_131210_PLEUEL-1                             
   108        108       CAT_131210_PLEUEL-1                             
   109        109       CAT_131210_PLEUEL-1                             
   110        110       CAT_131210_PLEUEL-1                             
   111        111       CAT_131210_PLEUEL-1                             
   112        112       CAT_131210_PLEUEL-1                             
   113        113       CAT_131210_PLEUEL-1                             
   114        114       CAT_131210_PLEUEL-1                             
   115        115       CAT_131210_PLEUEL-1                             
   116        116       CAT_131210_PLEUEL-1                             
   117        117       CAT_131210_PLEUEL-1                             
   118        118       CAT_131210_PLEUEL-1                             
   119        119       CAT_131210_PLEUEL-1                             
   120        120       CAT_131210_PLEUEL-1                             
   121        121       CAT_131210_PLEUEL-1                             
   122        122       CAT_131210_PLEUEL-1                             
   123        123       CAT_131210_PLEUEL-1                             
   124        124       CAT_131210_PLEUEL-1                             
   125        125       CAT_131210_PLEUEL-1                             
   126        126       CAT_131210_PLEUEL-1                             
   127        127       CAT_131210_PLEUEL-1                             
   128        128       CAT_131210_PLEUEL-1                             
   129        129       CAT_131210_PLEUEL-1                             
   130        130       CAT_131210_PLEUEL-1                             
   131        131       CAT_131210_PLEUEL-1                             
   132        132       CAT_131210_PLEUEL-1                             
   133        133       CAT_131210_PLEUEL-1                             
   134        134       CAT_131210_PLEUEL-1                             
   135        135       CAT_131210_PLEUEL-1                             
   136        136       CAT_131210_PLEUEL-1                             
   137        137       CAT_131210_PLEUEL-1                             
   138        138       CAT_131210_PLEUEL-1                             
   139        139       CAT_131210_PLEUEL-1                             
   140        140       CAT_131210_PLEUEL-1                             
   141        141       CAT_131210_PLEUEL-1                             
   142        142       CAT_131210_PLEUEL-1                             
   143        143       CAT_131210_PLEUEL-1                             
   144        144       CAT_131210_PLEUEL-1                             
   145        145       CAT_131210_PLEUEL-1                             
   146        146       CAT_131210_PLEUEL-1                             
   147        147       CAT_131210_PLEUEL-1                             
   148        148       CAT_131210_PLEUEL-1                             
   149        149       CAT_131210_PLEUEL-1                             
   150        150       CAT_131210_PLEUEL-1                             
   151        151       CAT_131210_PLEUEL-1                             
   152        152       CAT_131210_PLEUEL-1                             
   153        153       CAT_131210_PLEUEL-1                             
   154        154       CAT_131210_PLEUEL-1                             
   155        155       CAT_131210_PLEUEL-1                             
   156        156       CAT_131210_PLEUEL-1                             
   157        157       CAT_131210_PLEUEL-1                             
   158        158       CAT_131210_PLEUEL-1                             
   159        159       CAT_131210_PLEUEL-1                             
   160        160       CAT_131210_PLEUEL-1                             
[...]
        386     -0.2282     -2.9620E-08  2.9161E-08 
        387     -0.3362      1.8276E-09  8.1227E-09 
        388     -0.3611     -9.0005E-08 -3.8401E-08 
        389     -0.5163      4.7627E-09  2.2324E-08 
        390      0.1720      1.1849E-08  1.0987E-08 
        391     -1.9935E-02 -3.9738E-08 -2.0597E-08 
        392      0.6670     -3.9021E-09  2.8948E-08 
        393     -0.1266      6.7382E-09 -2.0533E-08 
        394      0.1722     -3.8498E-08 -3.0989E-08 
        395     -0.2302     -2.5205E-09  2.6356E-08 
        396     -0.4530      5.0449E-09  3.5619E-08 
        397     -0.2508      3.0195E-08  4.9301E-08 
        398     -0.4743      9.5376E-09 -5.6384E-09 
        399      0.5342      3.4201E-09 -7.1692E-08 
        400      0.2822      5.9442E-08 -3.7050E-08 
        401     -0.4160     -9.1449E-09 -7.1565E-09 
        402     -0.2285      4.1431E-11  2.7163E-08 
        403     -0.5480     -4.3679E-09  4.0565E-08 
        404      0.5707     -3.0420E-08 -3.9146E-08 
        405     -9.0686E-02 -9.7401E-08  4.2031E-08 
        406     -0.6182     -1.3363E-07  6.2980E-09 
        407     -0.6182      1.7908E-08 -2.1444E-08 
        408     -0.5328     -1.3265E-08 -4.7790E-08 
        409      0.1073      4.2705E-08  3.5485E-08 
        410      9.7365E-03 -6.3389E-09  3.3106E-08 
        411     -0.1584      2.3181E-08  9.7069E-09 
        412     -7.6309E-02  2.5287E-08 -3.8906E-08 
        413     -0.1781      2.8202E-08  1.7858E-08 
        414      0.1001      1.9642E-10 -1.4841E-08 
        415      0.1829      8.5024E-09 -5.3313E-08 
        416      0.2093      1.9464E-08  4.0875E-08 
        417     -0.1006      3.1049E-08 -1.7782E-09 
        418      0.1689     -8.3132E-09  1.5969E-08 
        419      0.3555     -2.6415E-08 -2.8269E-08 
        420      0.4147     -4.5271E-09  3.4155E-08 
        421      0.4427     -1.7056E-08  1.4375E-08 
        422      0.2164     -3.9721E-08 -2.5801E-08 
        423      0.2139      6.2039E-09 -1.1919E-08 
        424      0.5036      5.3489E-09 -5.1244E-08 
        425      0.5256      2.2946E-09 -1.7864E-08 
        426      0.5956     -7.3510E-09  6.1556E-09 
        427      0.5002      2.1742E-09  1.2571E-08 
        428      0.1547     -5.8790E-09  5.9355E-09 
        429      0.5333      3.7648E-08 -2.2313E-08 
        430      0.5547      2.8072E-08 -4.7826E-09 
        431      0.5786     -1.4069E-08 -6.0613E-08 
        432      0.5599     -4.2124E-08  2.4271E-08 
        433      0.5563     -3.4847E-08 -2.3940E-08 
        434      0.4197     -8.8065E-09  2.5988E-08 
        435      7.1719E-02  8.0737E-09  2.2295E-08 
        436      0.2844     -2.0870E-09 -2.8466E-08 
        437      0.3406      8.9744E-09  3.1612E-08 
        438     -0.3138     -3.0516E-08  7.7511E-10 
        439      9.2524E-02 -1.8376E-08 -2.0764E-08 
        440      0.3442     -1.6632E-08 -1.2891E-08 
        441     -0.4680      3.9836E-09  2.7659E-08 
        442     -0.2943     -9.8727E-09 -4.4984E-09 
        443      0.3553      4.9666E-09 -3.6884E-08 
        444     -0.4429      1.3112E-08 -2.6840E-08 
        445     -0.2196     -1.6904E-08  2.3495E-09 
        446     -0.2938      2.0862E-08  1.1893E-08 
        447     -9.8655E-02 -2.1099E-08  1.5549E-08 
        448      0.4833      1.5953E-08 -2.7420E-08 
        449     -3.2372E-02 -3.3843E-08 -6.6747E-09 
        450      0.5245      3.9439E-09 -3.6048E-10 
        451      0.5102     -2.9220E-08 -1.2214E-08 
        452      0.1743      2.5995E-08 -3.0301E-08 
        453      0.4129      2.4094E-08 -3.4794E-09 
        454      0.5516      1.4854E-08  2.5459E-08 
        455      0.1546     -1.2719E-08  5.8982E-08 
        456      0.5000     -1.0305E-08 -7.1221E-09 
        457     -0.7685      2.4220E-02 -9.3816E-02 
        458     -9.8046E-04  3.4404E-02  8.3124E-04 
        459     -0.6190      7.3147E-02  0.1046     
        460     -0.2011      0.1032      8.2929E-02 
        461      0.3592      0.1561      4.9100E-02 
        462      0.8235      0.1888      1.8887E-02 
        463      0.9998      0.2113     -1.5639E-03 
        464      0.8152      0.1885     -1.9755E-02 
        465      0.3469      0.1519     -5.1879E-02 
        466     -0.2086      0.1073     -8.1042E-02 
        467     -0.6415      6.8163E-02 -0.1068     
        468     -0.7606      2.3919E-02  9.3582E-02 
        469     -8.3539E-03  3.5841E-02 -2.3155E-04 
        470     -1.0116E-02  3.8242E-03  7.5133E-03 
        471     -2.0571E-03 -1.1003E-03  4.0818E-04 
        472     -1.0420E-02  3.2897E-03 -7.4004E-03 
        473      0.1814      0.1872     -3.1336E-02 
        474      8.4074E-02  0.1753     -6.0812E-02 
        475     -5.1847E-02  0.1602     -6.9264E-02 
        476     -0.1768      0.1197     -7.7489E-02 
        477     -0.3129      9.0673E-02 -7.5921E-02 
        478     -0.4038      4.3003E-02 -7.1445E-02 
        479     -0.4466     -4.3912E-03 -6.1928E-02 
        480     -0.4504     -4.7013E-02 -5.1684E-02 
        481     -0.4199     -7.0742E-02 -3.8443E-02 
        482     -0.3699     -9.1528E-02 -2.7035E-02 
        483     -0.3306     -9.2044E-02 -1.1605E-02 
        484      0.2077      0.1842     -7.3321E-04 
        485     -0.3173     -9.7761E-02  6.4913E-04 
        486     -0.3306     -9.1054E-02  1.4919E-02 
        487     -0.3704     -8.9558E-02  2.6862E-02 
        488     -0.4145     -6.8282E-02  4.1155E-02 
        489     -0.4431     -4.4901E-02  5.1775E-02 
        490     -0.4334      1.7589E-03  6.2116E-02 
        491     -0.3949      4.2441E-02  7.1138E-02 
        492     -0.3043      9.3317E-02  7.8121E-02 
        493     -0.1710      0.1257      7.8332E-02 
        494     -2.6961E-02  0.1595      6.8359E-02 
        495      9.4448E-02  0.1713      5.0682E-02 
        496      0.1817      0.1847      2.7298E-02 
        505     -0.5909     -4.2669E-02 -6.5475E-02 
        506     -0.2311     -9.2130E-02 -3.4973E-02 
        507      0.1692     -9.8465E-02 -8.0273E-03 
        508      0.4897     -7.0441E-02  1.5398E-02 
        509      0.6348     -2.2449E-02  2.7924E-02 
        510      0.5612      2.9814E-02  2.5532E-02 
        511      0.3112      6.1804E-02  8.8370E-03 
        512      8.3892E-02  4.2260E-02 -4.4146E-03 
        513     -0.5925     -3.8367E-02  6.7110E-02 
        514     -0.2473     -9.1126E-02  3.5242E-02 
        515      0.1483     -9.8786E-02  1.2975E-02 
        516      0.4711     -7.0185E-02 -1.4004E-02 
        517      0.6072     -2.3052E-02 -2.1311E-02 
        518      0.5412      3.3013E-02 -2.4595E-02 
        519      0.3132      5.1292E-02 -4.1609E-03 
        520      7.6233E-02  4.6561E-02  8.0735E-03 
        521     -0.1628     -9.5432E-02  4.4420E-03 
        522      0.4164      0.1964     -1.7291E-03 
        523     -0.3799     -6.9280E-02  2.8159E-02 
        524      0.3463      0.1861     -2.4542E-02 
        525     -0.2150     -9.5738E-02  8.3280E-03 
        526     -0.4938     -2.0289E-02 -5.4393E-02 
        527     -0.2497      0.1063      8.2046E-02 
        528      0.2069      0.1761     -4.4163E-02 
        529     -3.6934E-02  0.1361      6.7088E-02 
        530     -0.4371     -4.9932E-02 -4.0378E-02 
        531     -0.4639      5.3686E-02 -8.3042E-02 
        532     -0.2937     -8.1549E-02  1.8733E-02 
        533      0.3591      0.1839      2.3926E-02 
        534      0.1931      0.1711      4.7247E-02 
        535     -0.2501     -9.6856E-02 -9.3325E-03 
        536     -0.5175      1.3894E-02 -7.2026E-02 
        537     -0.3355      8.1877E-02  8.2251E-02 
        538     -0.2319     -9.4644E-02 -4.7932E-03 
        539     -0.3366     -7.7727E-02 -2.3347E-02 
        540     -0.3559      8.3823E-02 -8.3761E-02 
        541     -0.5114      6.8759E-03  7.0822E-02 
        542      0.1786      4.8270E-02  4.6172E-03 
        543     -2.4354E-02 -9.8649E-02  4.1420E-03 
        544      0.6656      0.1979     -8.3521E-04 
        545     -0.1274     -0.1009     -2.2105E-03 
        546      0.1734      0.1612     -5.8335E-02 
        547     -0.2322     -8.9308E-02  1.8347E-02 
        548     -0.4494      7.3570E-02  9.2298E-02 
        549     -0.2490      0.1144     -8.9298E-02 
        550     -0.4720     -6.1664E-02  4.9280E-02 
        551      0.5326      0.1946     -3.0424E-02 
        552      0.2824      0.1649      5.4900E-02 
        553     -0.4171     -6.1345E-02 -3.8476E-02 
        554     -0.2250     -9.0014E-02 -2.0217E-02 
        555     -0.5445     -3.3686E-02 -6.1912E-02 
        556      0.5691      0.1943      2.7971E-02 
        557     -8.9333E-02  0.1352      7.9651E-02 
        558     -0.6160      1.2706E-02 -8.3430E-02 
        559     -0.6146      1.3159E-02  8.1249E-02 
        560     -0.5289      6.2962E-02 -9.3152E-02 
        561      0.1081     -9.1060E-02  5.3011E-03 
        562      9.1800E-03 -9.4483E-02 -1.7214E-03 
        563     -0.1562     -9.2316E-02 -8.3046E-03 
        564     -7.5654E-02 -9.3979E-02  1.3501E-02 
        565     -0.1773     -0.1012      3.3062E-02 
        566      0.1079      5.3551E-02 -4.5876E-03 
        567      0.1809     -9.2152E-02 -1.9506E-04 
        568      0.2099     -9.3066E-02 -5.5880E-03 
        569     -0.1018     -0.1050     -2.5111E-02 
        570      0.1683     -0.1034      1.0983E-02 
        571      0.3518     -7.5175E-02  3.6055E-03 
        572      0.4103     -6.9778E-02  7.2996E-04 
        573      0.4383     -7.3045E-02 -8.9546E-04 
        574      0.2174     -0.1036     -7.7734E-03 
        575      0.2198      5.0474E-02  3.3196E-03 
        576      0.4968     -6.2131E-02  7.2198E-03 
        577      0.5350      4.2871E-02  1.8948E-02 
        578      0.6010     -3.9579E-03  1.9480E-02 
        579      0.4947      3.9425E-02 -7.6289E-03 
        580      0.1499      4.5028E-02 -8.6613E-03 
        581      0.5374     -3.7593E-02  5.6544E-03 
        582      0.5512      1.2697E-02  1.0469E-02 
        583      0.5733     -1.5630E-02 -1.6192E-02 
        584      0.5537     -2.4658E-02  6.9005E-03 
        585      0.5495      3.8359E-03  1.5729E-03 
        586      0.4218      5.8486E-02  3.3598E-03 
        587      8.2583E-02  5.2055E-02  8.9492E-03 
        588      0.2907      7.2991E-02 -1.5183E-02 
        589      0.3358      5.8464E-02  1.2790E-02 
        590     -0.3107     -8.8873E-02 -3.7337E-02 
        591      8.3471E-02  3.9431E-02  1.3055E-02 
        592      0.3414      6.0700E-02 -5.3609E-03 
        593     -0.4659     -3.2407E-02  4.7720E-02 
        594     -0.2949     -8.5664E-02 -1.4996E-02 
        595      0.3670      6.6969E-02  1.8607E-02 
        596     -0.4382      5.7650E-02  8.1874E-02 
        597     -0.2226     -9.1216E-02 -1.3415E-02 
        598     -0.2941     -7.9106E-02  2.9627E-02 
        599     -9.7256E-02 -0.1010      2.2704E-02 
        600      0.4802      3.7690E-02  1.0777E-03 
        601     -3.6530E-02 -0.1018     -1.3475E-02 
        602      0.5283      2.5485E-02 -8.2752E-03 
        603      0.4854      3.5473E-02  7.3574E-03 
        604      0.1705     -9.8160E-02  1.2141E-02 
        605      0.4137     -7.1172E-02  1.6864E-03 
        606      0.5484     -2.3313E-02 -1.8353E-03 
        607      0.1522     -9.5268E-02  7.7655E-03 
        608      0.4928     -4.6370E-02  1.1040E-03 
        609     -0.7587      3.5272E-02 -0.1891     
        610      4.2399E-03  6.1527E-02  3.8391E-03 
        611     -0.6131      0.1559      0.2032     
        612     -0.1968      0.2327      0.1855     
        613      0.3593      0.3317      0.1175     
        614      0.8207      0.3855      6.2463E-02 
        615      0.9960      0.4222     -7.8031E-03 
        616      0.8128      0.3841     -5.3869E-02 
        617      0.3456      0.3258     -0.1370     
        618     -0.2027      0.2448     -0.1725     
        619     -0.6341      0.1452     -0.2144     
        620     -0.7496      3.3822E-02  0.1944     
        621     -4.0951E-03  6.4139E-02  1.2905E-03 
        622     -8.6193E-03  1.3438E-04  8.0088E-03 
        623     -1.7938E-03  7.2100E-03  6.1593E-05 
        624     -9.0176E-03 -1.3728E-03 -6.4019E-03 
        625      0.1704      0.3711     -5.4953E-02 
        626      7.8685E-02  0.3466     -0.1072     
        627     -4.9158E-02  0.3111     -0.1250     
        628     -0.1650      0.2326     -0.1513     
        629     -0.3014      0.1782     -0.1520     
        630     -0.3839      9.6615E-02 -0.1383     
        631     -0.4338      1.0779E-02 -0.1213     
        632     -0.4360     -7.6403E-02 -8.9929E-02 
        633     -0.4196     -0.1262     -6.2797E-02 
        634     -0.3703     -0.1827     -4.4345E-02 
        635     -0.3377     -0.1812     -1.7303E-02 
        636      0.1988      0.3680      7.6213E-05 
        637     -0.3225     -0.1994      7.1050E-04 
        638     -0.3333     -0.1773      2.2684E-02 
        639     -0.3717     -0.1777      4.5057E-02 
        640     -0.4088     -0.1193      6.6648E-02 
        641     -0.4338     -7.2692E-02  9.0916E-02 
        642     -0.4183      2.2140E-02  0.1183     
        643     -0.3771      8.8563E-02  0.1428     
        644     -0.2860      0.1873      0.1600     
        645     -0.1620      0.2480      0.1507     
        646     -2.3998E-02  0.3060      0.1250     
        647      9.1882E-02  0.3370      9.2691E-02 
        648      0.1718      0.3674      4.4935E-02 
        657     -0.5805     -0.1089     -0.1338     
        658     -0.2293     -0.2172     -7.9962E-02 
        659      0.1690     -0.2071     -1.4229E-02 
        660      0.4770     -0.1645      2.2786E-02 
        661      0.6349     -2.1306E-02  6.2820E-02 
        662      0.5641      7.0123E-02  5.1709E-02 
        663      0.3083      0.1517      2.4362E-02 
        664      9.4704E-02  8.9534E-02 -6.2879E-03 
        665     -0.5832     -9.5733E-02  0.1317     
        666     -0.2443     -0.2153      8.4144E-02 
        667      0.1466     -0.2062      1.9163E-02 
        668      0.4597     -0.1657     -1.3775E-02 
        669      0.5973     -2.0646E-02 -5.6830E-02 
        670      0.5282      4.4806E-02 -3.7486E-02 
        671      0.3274      0.1710     -2.9711E-02 
        672      9.2783E-02  8.9998E-02  7.3664E-03 
        673     -0.1663     -0.1878      8.7926E-03 
        674      0.4070      0.3874     -5.9277E-03 
        675     -0.3761     -0.1389      5.8064E-02 
        676      0.3389      0.3699     -4.5203E-02 
        677     -0.2175     -0.1969      1.8441E-02 
        678     -0.4845     -3.1010E-02 -0.1042     
        679     -0.2375      0.2125      0.1594     
        680      0.2029      0.3483     -8.2535E-02 
        681     -3.1799E-02  0.2728      0.1304     
        682     -0.4307     -9.5581E-02 -7.9626E-02 
        683     -0.4481      0.1111     -0.1616     
        684     -0.2956     -0.1589      3.3062E-02 
        685      0.3530      0.3678      4.7341E-02 
        686      0.1902      0.3356      9.0656E-02 
        687     -0.2528     -0.1962     -1.7193E-02 
        688     -0.5026      3.7292E-02 -0.1375     
        689     -0.3213      0.1635      0.1683     
        690     -0.2316     -0.1865     -8.1480E-03 
        691     -0.3319     -0.1604     -4.6181E-02 
        692     -0.3400      0.1710     -0.1655     
        693     -0.4974      2.0375E-02  0.1330     
        694      0.1983      0.1594     -7.5886E-03 
        695     -2.6709E-02 -0.2071      9.4830E-03 
        696      0.6592      0.3937      1.6852E-03 
        697     -0.1321     -0.2064     -6.3851E-03 
        698      0.1740      0.3277     -0.1182     
        699     -0.2295     -0.1904      4.0261E-02 
        700     -0.4386      0.1570      0.1853     
        701     -0.2411      0.2345     -0.1784     
        702     -0.4646     -0.1430      0.1093     
        703      0.5279      0.3909     -7.5367E-02 
        704      0.2812      0.3412      0.1275     
        705     -0.4073     -0.1239     -8.3470E-02 
        706     -0.2275     -0.1805     -4.4165E-02 
        707     -0.5352     -7.8635E-02 -0.1302     
        708      0.5650      0.3888      6.2363E-02 
        709     -8.3797E-02  0.2823      0.1618     
        710     -0.6043      1.5286E-02 -0.1608     
        711     -0.6022      2.2228E-02  0.1555     
        712     -0.5193      0.1356     -0.1859     
        713      0.1022     -0.1754      1.1514E-02 
        714      5.4468E-03 -0.1874     -4.1050E-03 
        715     -0.1592     -0.1845     -2.0289E-02 
        716     -7.7897E-02 -0.1857      3.1241E-02 
        717     -0.1729     -0.2087      6.4442E-02 
        718      0.1145      0.1184      1.1244E-02 
        719      0.1734     -0.2015     -8.1104E-04 
        720      0.2022     -0.1794     -1.4600E-02 
        721     -9.7671E-02 -0.2146     -5.0964E-02 
        722      0.1615     -0.2312      3.2973E-02 
        723      0.3457     -0.1408      8.6458E-03 
        724      0.4009     -0.1595      1.3879E-04 
        725      0.4344     -0.1357     -8.4492E-03 
        726      0.2079     -0.2284     -2.3842E-02 
        727      0.2400      0.1639      7.4691E-03 
        728      0.4923     -0.1129      1.7917E-02 
        729      0.5168      0.1020      4.3596E-02 
        730      0.5795     -2.8452E-02  3.1898E-02 
        731      0.4955      0.1242     -3.1574E-02 
        732      0.1805      0.1252      1.0693E-02 
        733      0.5195     -5.6722E-02  9.9402E-03 
        734      0.5462      5.8527E-02  1.8643E-02 
        735      0.5615     -5.6229E-02 -2.0185E-02 
        736      0.5423     -7.0596E-02  1.4210E-02 
        737      0.5419     -1.1354E-02  4.4987E-03 
        738      0.4045      9.3302E-02  1.0483E-02 
        739      8.6588E-02  0.1198     -5.3428E-03 
        740      0.2709      0.1130     -1.0153E-02 
        741      0.3368      0.1341      2.1587E-02 
        742     -0.3084     -0.1878     -7.9384E-02 
        743      0.1210      0.1100     -6.1351E-03 
        744      0.3388      9.9589E-02 -7.0611E-03 
        745     -0.4572     -5.5424E-02  9.2197E-02 
        746     -0.2965     -0.1655     -2.4673E-02 
        747      0.3470      0.1350      2.3916E-02 
        748     -0.4221      0.1235      0.1618     
        749     -0.2203     -0.1902     -3.2952E-02 
        750     -0.2903     -0.1559      6.3465E-02 
        751     -9.8975E-02 -0.2145      4.7552E-02 
        752      0.4766      0.1130     -1.6240E-03 
        753     -3.6443E-02 -0.2127     -2.8347E-02 
        754      0.5114      2.9171E-02 -8.6374E-03 
        755      0.5029      8.1641E-02  2.5147E-02 
        756      0.1684     -0.1910      2.9102E-02 
        757      0.3993     -0.1630      4.4102E-03 
        758      0.5384     -2.1882E-02 -5.5677E-03 
        759      0.1464     -0.2089      1.6750E-02 
        760      0.4844     -0.1132      5.0237E-03 

 MAXIMUM          1.000      0.4222      0.2144    
 AT NODE               311         615          11

 MINIMUM        -0.7718     -0.4222     -0.2144    
 AT NODE               305           7         619


          THE ANALYSIS HAS BEEN COMPLETED



                              ANALYSIS COMPLETE
                              WITH     12 WARNING MESSAGES ON THE DAT FILE



     JOB TIME SUMMARY
       USER TIME (SEC)      =  0.60000    
       SYSTEM TIME (SEC)    =  0.10000    
       TOTAL CPU TIME (SEC) =  0.70000    
       WALLCLOCK TIME (SEC) =          0
