*Heading
** Job name: Job-1 Model name: Model-1
** Generated by: Abaqus/CAE Student Edition 6.12-2
*Preprint, echo=NO, model=NO, history=NO, contact=NO
**
** PARTS
**
*Part, name=Part-1
*End Part
**  
**
** ASSEMBLY
**
*Assembly, name=Assembly
**  
*Instance, name=Part-1-1, part=Part-1
*Node
      1,         105.,          10.,   5.13000011
      2,         105.,          10.,   14.8699999
      3,         105.,           0.,   14.8699999
      4,         105.,           0.,   5.13000011
      5,          95.,          10.,   5.13000011
      6,          95.,          10.,   14.8699999
      7,          95.,           5.,   14.8699999
      8,          95.,           5.,   5.13000011
      9,          95.,           0.,   14.8699999
     10,          95.,           0.,   5.13000011
     11,         47.5,           5.,   5.13000011
     12,         47.5,           5.,   14.8699999
     13,         47.5,          10.,   14.8699999
     14,         47.5,          10.,   5.13000011
     15,          95.,   34.2200012,   5.13000011
     16,          95.,   34.2200012,   14.8699999
     17,         105.,   34.2200012,   14.8699999
     18,         105.,   34.2200012,   5.13000011
     19,          95.,           0.,           0.
     20,          95.,          10.,           0.
** ... 354 like lines cut
*Element, type=C3D8R
1,  47, 217, 358, 215,   1,  39, 214,  42
2, 217,  49, 216, 358,  39,   2,  40, 214
3, 215, 358, 218,  46,  42, 214,  41,   4
4, 358, 216,  48, 218, 214,  40,   3,  41
5,   5,  43,  44,   8,  47, 217, 358, 215
6,  43,   6,   7,  44, 217,  49, 216, 358
7,   8,  44,  45,  10, 215, 358, 218,  46
8,  44,   7,   9,  45, 358, 216,  48, 218
 9,  69, 219, 228,  52,  11,  50,  51,  14
10, 219,  79,  78, 228,  50,  12,  13,  51
11,  68, 220, 229,  53,  69, 219, 228,  52
12, 220,  80,  77, 229, 219,  79,  78, 228
13,  67, 221, 230,  54,  68, 220, 229,  53
14, 221,  81,  76, 230, 220,  80,  77, 229
15,  66, 222, 231,  55,  67, 221, 230,  54
16, 222,  82,  75, 231, 221,  81,  76, 230
17,  65, 223, 232,  56,  66, 222, 231,  55
18, 223,  83,  74, 232, 222,  82,  75, 231
19,  64, 224, 233,  57,  65, 223, 232,  56
20, 224,  84,  73, 233, 223,  83,  74, 232
** ... 158 like lines cut
*Nset, nset=Set-1, generate
   1,  374,    1
*Elset, elset=Set-1, generate
   1,  178,    1
** Section: BeamSection
*Solid Section, elset=Set-1, material=Steel
,
*End Instance
**  
*Nset, nset=Set-1, instance=Part-1-1
  35,  36,  37,  38, 206, 207, 208, 209, 210, 211, 212, 213, 323, 324, 325
*Elset, elset=Set-1, instance=Part-1-1, generate
 171,  178,    1
*End Assembly
** 
** MATERIALS
** 
*Material, name=Steel
*Density
7987.,
*Elastic
 2.1e+11, 0.3
** 
** BOUNDARY CONDITIONS
** 
** Name: Wall Type: Symmetry/Antisymmetry/Encastre
*Boundary
Set-1, ENCASTRE
** ----------------------------------------------------------------
** 
** STEP: FrequencyAnalysis
** 
*Step, name=FrequencyAnalysis, perturbation
*Frequency, eigensolver=Lanczos, acoustic coupling=on, normalization=displacement
10, , , , , 
** 
** OUTPUT REQUESTS
** 
*Restart, write, frequency=0
** 
** FIELD OUTPUT: F-Output-1
** 
*Output, field, variable=PRESELECT
*Output, Field
*Node Print, Mode=1, Last Mode=5
U
*End Step
**
** MASS&Stiffness
*STEP
*MATRIX GENERATE, MASS, STIFFNESS
*MATRIX OUTPUT, MASS, STIFFNESS
*END STEP
**

