1

   Abaqus 6.12-2                                  Date 21-Jun-2013   Time 11:13:02
   



     PROCESSING PART, INSTANCE, AND ASSEMBLY INFORMATION
   *******************************************************


     END PROCESSING PART, INSTANCE, AND ASSEMBLY INFORMATION
   ***********************************************************




     OPTIONS BEING PROCESSED
   ***************************


  *Heading
  *Node
  *Element, type=C3D8R
  *Nset, nset=ASSEMBLY_PART-1-1_SET-1
  *Elset, elset=ASSEMBLY_PART-1-1_SET-1
  *Nset, nset=ASSEMBLY_SET-1
  *Elset, elset=ASSEMBLY_SET-1
  *material, name=STEEL
  *density
  *elastic
  *solidsection, elset=ASSEMBLY_PART-1-1_SET-1, material=STEEL
  *boundary
  *solidsection, elset=ASSEMBLY_PART-1-1_SET-1, material=STEEL
  *output, field, variable=PRESELECT
  *output, field
  *output, field, variable=PRESELECT
  *output, field
  *output, field, variable=PRESELECT
  *output, field
  *Step, name=FrequencyAnalysis, perturbation
  *frequency, eigensolver=LANCZOS, normalization=DISPLACEMENT, acousticcoupling=ON
  *output, field, variable=PRESELECT
  *output, field
  *Step, name=Step-2
  *Step, name=FrequencyAnalysis, perturbation
  *Step, name=Step-2
  *Step, name=FrequencyAnalysis, perturbation
  *frequency, eigensolver=LANCZOS, normalization=DISPLACEMENT, acousticcoupling=ON
  *frequency, eigensolver=LANCZOS, normalization=DISPLACEMENT, acousticcoupling=ON
  *output, field, variable=PRESELECT
  *output, field
  *nodeprint, mode=1, lastmode=5
  *endstep
  *Step, name=Step-2
  *matrixgenerate, mass, stiffness
  *matrixoutput, mass, stiffness
  *endstep

 ***WARNING: OUTPUT REQUEST U1 IS NOT AVAILABLE FOR THIS TYPE OF ANALYSIS

 ***WARNING: OUTPUT REQUEST U2 IS NOT AVAILABLE FOR THIS TYPE OF ANALYSIS

 ***WARNING: OUTPUT REQUEST U3 IS NOT AVAILABLE FOR THIS TYPE OF ANALYSIS
  *boundary
  *Step, name=FrequencyAnalysis, perturbation
  *frequency, eigensolver=LANCZOS, normalization=DISPLACEMENT, acousticcoupling=ON
  *frequency, eigensolver=LANCZOS, normalization=DISPLACEMENT, acousticcoupling=ON
  *endstep
  *Step, name=Step-2
  *endstep


                              E L E M E N T,   N O D E,   A N D   S U R F A C E   M A P S


Assembly name: ASSEMBLY
Number of instances: 1

ASSEMBLY LEVEL
  node sets:
    SET-1:
      instance name: PART-1-1
      number of nodes: 15
      nodes: 
        35 36 37 38 206 207 208 209 210 211 212 213 323 324 325

  element sets:
    SET-1:
      instance name: PART-1-1
      number of elements: 8
      elements: 
        171 172 173 174 175 176 177 178

  Surfaces:

INSTANCE LEVEL
  node sets:
    Instance name: PART-1-1
      node set name: SET-1
        number of nodes: 374
        nodes: 
          1 2 3 4 5 6 7 8 9 10 11 12 13 14 15 16 17 18 19 20 21 22 23 24
          25 26 27 28 29 30 31 32 33 34 35 36 37 38 39 40 41 42 43 44 45
          46 47 48 49 50 51 52 53 54 55 56 57 58 59 60 61 62 63 64 65 66
          67 68 69 70 71 72 73 74 75 76 77 78 79 80 81 82 83 84 85 86 87
          88 89 90 91 92 93 94 95 96 97 98 99 100 101 102 103 104 105
          106 107 108 109 110 111 112 113 114 115 116 117 118 119 120
          121 122 123 124 125 126 127 128 129 130 131 132 133 134 135
          136 137 138 139 140 141 142 143 144 145 146 147 148 149 150
          151 152 153 154 155 156 157 158 159 160 161 162 163 164 165
          166 167 168 169 170 171 172 173 174 175 176 177 178 179 180
          181 182 183 184 185 186 187 188 189 190 191 192 193 194 195
          196 197 198 199 200 201 202 203 204 205 206 207 208 209 210
          211 212 213 214 215 216 217 218 219 220 221 222 223 224 225
          226 227 228 229 230 231 232 233 234 235 236 237 238 239 240
          241 242 243 244 245 246 247 248 249 250 251 252 253 254 255
          256 257 258 259 260 261 262 263 264 265 266 267 268 269 270
          271 272 273 274 275 276 277 278 279 280 281 282 283 284 285
          286 287 288 289 290 291 292 293 294 295 296 297 298 299 300
          301 302 303 304 305 306 307 308 309 310 311 312 313 314 315
          316 317 318 319 320 321 322 323 324 325 326 327 328 329 330
          331 332 333 334 335 336 337 338 339 340 341 342 343 344 345
          346 347 348 349 350 351 352 353 354 355 356 357 358 359 360
          361 362 363 364 365 366 367 368 369 370 371 372 373 374

  element sets:
    Instance name: PART-1-1
      element set name: SET-1
        number of elements: 178
        elements: 
          1 2 3 4 5 6 7 8 9 10 11 12 13 14 15 16 17 18 19 20 21 22 23 24
          25 26 27 28 29 30 31 32 33 34 35 36 37 38 39 40 41 42 43 44 45
          46 47 48 49 50 51 52 53 54 55 56 57 58 59 60 61 62 63 64 65 66
          67 68 69 70 71 72 73 74 75 76 77 78 79 80 81 82 83 84 85 86 87
          88 89 90 91 92 93 94 95 96 97 98 99 100 101 102 103 104 105
          106 107 108 109 110 111 112 113 114 115 116 117 118 119 120
          121 122 123 124 125 126 127 128 129 130 131 132 133 134 135
          136 137 138 139 140 141 142 143 144 145 146 147 148 149 150
          151 152 153 154 155 156 157 158 159 160 161 162 163 164 165
          166 167 168 169 170 171 172 173 174 175 176 177 178

  Surfaces:

GLOBAL TO LOCAL NODE AND ELEMENT MAPS
  Global     Local      
  node       node       
  number     number     
                        Instance name                                   
   1          1         PART-1-1                                        
   2          2         PART-1-1                                        
   3          3         PART-1-1                                        
   4          4         PART-1-1                                        
   5          5         PART-1-1                                        
   6          6         PART-1-1                                        
   7          7         PART-1-1                                        
   8          8         PART-1-1                                        
   9          9         PART-1-1                                        
   10         10        PART-1-1                                        
   11         11        PART-1-1                                        
   12         12        PART-1-1                                        
   13         13        PART-1-1                                        
   14         14        PART-1-1                                        
   15         15        PART-1-1                                        
   16         16        PART-1-1                                        
   17         17        PART-1-1                                        
   18         18        PART-1-1                                        
   19         19        PART-1-1                                        
   20         20        PART-1-1                                        
   21         21        PART-1-1                                        
   22         22        PART-1-1                                        
   23         23        PART-1-1                                        
   24         24        PART-1-1                                        
   25         25        PART-1-1                                        
   26         26        PART-1-1                                        
   27         27        PART-1-1                                        
   28         28        PART-1-1                                        
   29         29        PART-1-1                                        
   30         30        PART-1-1                                        
   31         31        PART-1-1                                        
   32         32        PART-1-1                                        
   33         33        PART-1-1                                        
   34         34        PART-1-1                                        
   35         35        PART-1-1                                        
   36         36        PART-1-1                                        
   37         37        PART-1-1                                        
   38         38        PART-1-1                                        
   39         39        PART-1-1                                        
   40         40        PART-1-1                                        
   41         41        PART-1-1                                        
   42         42        PART-1-1                                        
   43         43        PART-1-1                                        
   44         44        PART-1-1                                        
   45         45        PART-1-1                                        
   46         46        PART-1-1                                        
   47         47        PART-1-1                                        
   48         48        PART-1-1                                        
   49         49        PART-1-1                                        
   50         50        PART-1-1                                        
   51         51        PART-1-1                                        
   52         52        PART-1-1                                        
   53         53        PART-1-1                                        
   54         54        PART-1-1                                        
   55         55        PART-1-1                                        
   56         56        PART-1-1                                        
   57         57        PART-1-1                                        
   58         58        PART-1-1                                        
   59         59        PART-1-1                                        
   60         60        PART-1-1                                        
   61         61        PART-1-1                                        
   62         62        PART-1-1                                        
   63         63        PART-1-1                                        
   64         64        PART-1-1                                        
   65         65        PART-1-1                                        
   66         66        PART-1-1                                        
   67         67        PART-1-1                                        
   68         68        PART-1-1                                        
   69         69        PART-1-1                                        
   70         70        PART-1-1                                        
   71         71        PART-1-1                                        
   72         72        PART-1-1                                        
   73         73        PART-1-1                                        
   74         74        PART-1-1                                        
   75         75        PART-1-1                                        
   76         76        PART-1-1                                        
   77         77        PART-1-1                                        
   78         78        PART-1-1                                        
   79         79        PART-1-1                                        
   80         80        PART-1-1                                        
   81         81        PART-1-1                                        
   82         82        PART-1-1                                        
   83         83        PART-1-1                                        
   84         84        PART-1-1                                        
   85         85        PART-1-1                                        
   86         86        PART-1-1                                        
   87         87        PART-1-1                                        
   88         88        PART-1-1                                        
   89         89        PART-1-1                                        
   90         90        PART-1-1                                        
   91         91        PART-1-1                                        
   92         92        PART-1-1                                        
   93         93        PART-1-1                                        
   94         94        PART-1-1                                        
   95         95        PART-1-1                                        
   96         96        PART-1-1                                        
   97         97        PART-1-1                                        
   98         98        PART-1-1                                        
   99         99        PART-1-1                                        
   100        100       PART-1-1                                        
   101        101       PART-1-1                                        
   102        102       PART-1-1                                        
   103        103       PART-1-1                                        
   104        104       PART-1-1                                        
   105        105       PART-1-1                                        
   106        106       PART-1-1                                        
   107        107       PART-1-1                                        
   108        108       PART-1-1                                        
   109        109       PART-1-1                                        
   110        110       PART-1-1                                        
   111        111       PART-1-1                                        
   112        112       PART-1-1                                        
   113        113       PART-1-1                                        
   114        114       PART-1-1                                        
   115        115       PART-1-1                                        
   116        116       PART-1-1                                        
   117        117       PART-1-1                                        
   118        118       PART-1-1                                        
   119        119       PART-1-1                                        
   120        120       PART-1-1                                        
   121        121       PART-1-1                                        
   122        122       PART-1-1                                        
   123        123       PART-1-1                                        
   124        124       PART-1-1                                        
   125        125       PART-1-1                                        
   126        126       PART-1-1                                        
   127        127       PART-1-1                                        
   128        128       PART-1-1                                        
   129        129       PART-1-1                                        
   130        130       PART-1-1                                        
   131        131       PART-1-1                                        
   132        132       PART-1-1                                        
   133        133       PART-1-1                                        
   134        134       PART-1-1                                        
   135        135       PART-1-1                                        
   136        136       PART-1-1                                        
   137        137       PART-1-1                                        
   138        138       PART-1-1                                        
   139        139       PART-1-1                                        
   140        140       PART-1-1                                        
   141        141       PART-1-1                                        
   142        142       PART-1-1                                        
   143        143       PART-1-1                                        
   144        144       PART-1-1                                        
   145        145       PART-1-1                                        
   146        146       PART-1-1                                        
   147        147       PART-1-1                                        
   148        148       PART-1-1                                        
   149        149       PART-1-1                                        
   150        150       PART-1-1                                        
   151        151       PART-1-1                                        
   152        152       PART-1-1                                        
   153        153       PART-1-1                                        
   154        154       PART-1-1                                        
   155        155       PART-1-1                                        
   156        156       PART-1-1                                        
   157        157       PART-1-1                                        
   158        158       PART-1-1                                        
   159        159       PART-1-1                                        
   160        160       PART-1-1                                        
   161        161       PART-1-1                                        
   162        162       PART-1-1                                        
   163        163       PART-1-1                                        
   164        164       PART-1-1                                        
   165        165       PART-1-1                                        
   166        166       PART-1-1                                        
   167        167       PART-1-1                                        
   168        168       PART-1-1                                        
   169        169       PART-1-1                                        
   170        170       PART-1-1                                        
   171        171       PART-1-1                                        
   172        172       PART-1-1                                        
   173        173       PART-1-1                                        
   174        174       PART-1-1                                        
   175        175       PART-1-1                                        
   176        176       PART-1-1                                        
   177        177       PART-1-1                                        
   178        178       PART-1-1                                        
   179        179       PART-1-1                                        
   180        180       PART-1-1                                        
   181        181       PART-1-1                                        
   182        182       PART-1-1                                        
   183        183       PART-1-1                                        
   184        184       PART-1-1                                        
   185        185       PART-1-1                                        
   186        186       PART-1-1                                        
   187        187       PART-1-1                                        
   188        188       PART-1-1                                        
   189        189       PART-1-1                                        
   190        190       PART-1-1                                        
   191        191       PART-1-1                                        
   192        192       PART-1-1                                        
   193        193       PART-1-1                                        
   194        194       PART-1-1                                        
   195        195       PART-1-1                                        
   196        196       PART-1-1                                        
   197        197       PART-1-1                                        
   198        198       PART-1-1                                        
   199        199       PART-1-1                                        
   200        200       PART-1-1                                        
   201        201       PART-1-1                                        
   202        202       PART-1-1                                        
   203        203       PART-1-1                                        
   204        204       PART-1-1                                        
   205        205       PART-1-1                                        
   206        206       PART-1-1                                        
   207        207       PART-1-1                                        
   208        208       PART-1-1                                        
   209        209       PART-1-1                                        
   210        210       PART-1-1                                        
   211        211       PART-1-1                                        
   212        212       PART-1-1                                        
   213        213       PART-1-1                                        
   214        214       PART-1-1                                        
   215        215       PART-1-1                                        
   216        216       PART-1-1                                        
   217        217       PART-1-1                                        
   218        218       PART-1-1                                        
   219        219       PART-1-1                                        
   220        220       PART-1-1                                        
   221        221       PART-1-1                                        
   222        222       PART-1-1                                        
   223        223       PART-1-1                                        
   224        224       PART-1-1                                        
   225        225       PART-1-1                                        
   226        226       PART-1-1                                        
   227        227       PART-1-1                                        
   228        228       PART-1-1                                        
   229        229       PART-1-1                                        
   230        230       PART-1-1                                        
   231        231       PART-1-1                                        
   232        232       PART-1-1                                        
   233        233       PART-1-1                                        
   234        234       PART-1-1                                        
   235        235       PART-1-1                                        
   236        236       PART-1-1                                        
   237        237       PART-1-1                                        
   238        238       PART-1-1                                        
   239        239       PART-1-1                                        
   240        240       PART-1-1                                        
   241        241       PART-1-1                                        
   242        242       PART-1-1                                        
   243        243       PART-1-1                                        
   244        244       PART-1-1                                        
   245        245       PART-1-1                                        
   246        246       PART-1-1                                        
   247        247       PART-1-1                                        
   248        248       PART-1-1                                        
   249        249       PART-1-1                                        
   250        250       PART-1-1                                        
   251        251       PART-1-1                                        
   252        252       PART-1-1                                        
   253        253       PART-1-1                                        
   254        254       PART-1-1                                        
   255        255       PART-1-1                                        
   256        256       PART-1-1                                        
   257        257       PART-1-1                                        
   258        258       PART-1-1                                        
   259        259       PART-1-1                                        
   260        260       PART-1-1                                        
   261        261       PART-1-1                                        
   262        262       PART-1-1                                        
   263        263       PART-1-1                                        
   264        264       PART-1-1                                        
   265        265       PART-1-1                                        
   266        266       PART-1-1                                        
   267        267       PART-1-1                                        
   268        268       PART-1-1                                        
   269        269       PART-1-1                                        
   270        270       PART-1-1                                        
   271        271       PART-1-1                                        
   272        272       PART-1-1                                        
   273        273       PART-1-1                                        
   274        274       PART-1-1                                        
   275        275       PART-1-1                                        
   276        276       PART-1-1                                        
   277        277       PART-1-1                                        
   278        278       PART-1-1                                        
   279        279       PART-1-1                                        
   280        280       PART-1-1                                        
   281        281       PART-1-1                                        
   282        282       PART-1-1                                        
   283        283       PART-1-1                                        
   284        284       PART-1-1                                        
   285        285       PART-1-1                                        
   286        286       PART-1-1                                        
   287        287       PART-1-1                                        
   288        288       PART-1-1                                        
   289        289       PART-1-1                                        
   290        290       PART-1-1                                        
   291        291       PART-1-1                                        
   292        292       PART-1-1                                        
   293        293       PART-1-1                                        
   294        294       PART-1-1                                        
   295        295       PART-1-1                                        
   296        296       PART-1-1                                        
   297        297       PART-1-1                                        
   298        298       PART-1-1                                        
   299        299       PART-1-1                                        
   300        300       PART-1-1                                        
   301        301       PART-1-1                                        
   302        302       PART-1-1                                        
   303        303       PART-1-1                                        
   304        304       PART-1-1                                        
   305        305       PART-1-1                                        
   306        306       PART-1-1                                        
   307        307       PART-1-1                                        
   308        308       PART-1-1                                        
   309        309       PART-1-1                                        
   310        310       PART-1-1                                        
   311        311       PART-1-1                                        
   312        312       PART-1-1                                        
   313        313       PART-1-1                                        
   314        314       PART-1-1                                        
   315        315       PART-1-1                                        
   316        316       PART-1-1                                        
   317        317       PART-1-1                                        
   318        318       PART-1-1                                        
   319        319       PART-1-1                                        
   320        320       PART-1-1                                        
   321        321       PART-1-1                                        
   322        322       PART-1-1                                        
   323        323       PART-1-1                                        
   324        324       PART-1-1                                        
   325        325       PART-1-1                                        
   326        326       PART-1-1                                        
   327        327       PART-1-1                                        
   328        328       PART-1-1                                        
   329        329       PART-1-1                                        
   330        330       PART-1-1                                        
   331        331       PART-1-1                                        
   332        332       PART-1-1                                        
   333        333       PART-1-1                                        
   334        334       PART-1-1                                        
   335        335       PART-1-1                                        
   336        336       PART-1-1                                        
   337        337       PART-1-1                                        
   338        338       PART-1-1                                        
   339        339       PART-1-1                                        
   340        340       PART-1-1                                        
   341        341       PART-1-1                                        
   342        342       PART-1-1                                        
   343        343       PART-1-1                                        
   344        344       PART-1-1                                        
   345        345       PART-1-1                                        
   346        346       PART-1-1                                        
   347        347       PART-1-1                                        
   348        348       PART-1-1                                        
   349        349       PART-1-1                                        
   350        350       PART-1-1                                        
   351        351       PART-1-1                                        
   352        352       PART-1-1                                        
   353        353       PART-1-1                                        
   354        354       PART-1-1                                        
   355        355       PART-1-1                                        
   356        356       PART-1-1                                        
   357        357       PART-1-1                                        
   358        358       PART-1-1                                        
   359        359       PART-1-1                                        
   360        360       PART-1-1                                        
   361        361       PART-1-1                                        
   362        362       PART-1-1                                        
   363        363       PART-1-1                                        
   364        364       PART-1-1                                        
   365        365       PART-1-1                                        
   366        366       PART-1-1                                        
   367        367       PART-1-1                                        
   368        368       PART-1-1                                        
   369        369       PART-1-1                                        
   370        370       PART-1-1                                        
   371        371       PART-1-1                                        
   372        372       PART-1-1                                        
   373        373       PART-1-1                                        
   374        374       PART-1-1                                        

  Global     Local      
  element    element    
  number     number     
                        Instance name                                   
   1          1         PART-1-1                                        
   2          2         PART-1-1                                        
   3          3         PART-1-1                                        
   4          4         PART-1-1                                        
   5          5         PART-1-1                                        
   6          6         PART-1-1                                        
   7          7         PART-1-1                                        
   8          8         PART-1-1                                        
   9          9         PART-1-1                                        
   10         10        PART-1-1                                        
   11         11        PART-1-1                                        
   12         12        PART-1-1                                        
   13         13        PART-1-1                                        
   14         14        PART-1-1                                        
   15         15        PART-1-1                                        
   16         16        PART-1-1                                        
   17         17        PART-1-1                                        
   18         18        PART-1-1                                        
   19         19        PART-1-1                                        
   20         20        PART-1-1                                        
   21         21        PART-1-1                                        
   22         22        PART-1-1                                        
   23         23        PART-1-1                                        
   24         24        PART-1-1                                        
   25         25        PART-1-1                                        
   26         26        PART-1-1                                        
   27         27        PART-1-1                                        
   28         28        PART-1-1                                        
   29         29        PART-1-1                                        
   30         30        PART-1-1                                        
   31         31        PART-1-1                                        
   32         32        PART-1-1                                        
   33         33        PART-1-1                                        
   34         34        PART-1-1                                        
   35         35        PART-1-1                                        
   36         36        PART-1-1                                        
   37         37        PART-1-1                                        
   38         38        PART-1-1                                        
   39         39        PART-1-1                                        
   40         40        PART-1-1                                        
   41         41        PART-1-1                                        
   42         42        PART-1-1                                        
   43         43        PART-1-1                                        
   44         44        PART-1-1                                        
   45         45        PART-1-1                                        
   46         46        PART-1-1                                        
   47         47        PART-1-1                                        
   48         48        PART-1-1                                        
   49         49        PART-1-1                                        
   50         50        PART-1-1                                        
   51         51        PART-1-1                                        
   52         52        PART-1-1                                        
   53         53        PART-1-1                                        
   54         54        PART-1-1                                        
   55         55        PART-1-1                                        
   56         56        PART-1-1                                        
   57         57        PART-1-1                                        
   58         58        PART-1-1                                        
   59         59        PART-1-1                                        
   60         60        PART-1-1                                        
   61         61        PART-1-1                                        
   62         62        PART-1-1                                        
   63         63        PART-1-1                                        
   64         64        PART-1-1                                        
   65         65        PART-1-1                                        
   66         66        PART-1-1                                        
   67         67        PART-1-1                                        
   68         68        PART-1-1                                        
   69         69        PART-1-1                                        
   70         70        PART-1-1                                        
   71         71        PART-1-1                                        
   72         72        PART-1-1                                        
   73         73        PART-1-1                                        
   74         74        PART-1-1                                        
   75         75        PART-1-1                                        
   76         76        PART-1-1                                        
   77         77        PART-1-1                                        
   78         78        PART-1-1                                        
   79         79        PART-1-1                                        
   80         80        PART-1-1                                        
   81         81        PART-1-1                                        
   82         82        PART-1-1                                        
   83         83        PART-1-1                                        
   84         84        PART-1-1                                        
   85         85        PART-1-1                                        
   86         86        PART-1-1                                        
   87         87        PART-1-1                                        
   88         88        PART-1-1                                        
   89         89        PART-1-1                                        
   90         90        PART-1-1                                        
   91         91        PART-1-1                                        
   92         92        PART-1-1                                        
   93         93        PART-1-1                                        
   94         94        PART-1-1                                        
   95         95        PART-1-1                                        
   96         96        PART-1-1                                        
   97         97        PART-1-1                                        
   98         98        PART-1-1                                        
   99         99        PART-1-1                                        
   100        100       PART-1-1                                        
   101        101       PART-1-1                                        
   102        102       PART-1-1                                        
   103        103       PART-1-1                                        
   104        104       PART-1-1                                        
   105        105       PART-1-1                                        
   106        106       PART-1-1                                        
   107        107       PART-1-1                                        
   108        108       PART-1-1                                        
   109        109       PART-1-1                                        
   110        110       PART-1-1                                        
   111        111       PART-1-1                                        
   112        112       PART-1-1                                        
   113        113       PART-1-1                                        
   114        114       PART-1-1                                        
   115        115       PART-1-1                                        
   116        116       PART-1-1                                        
   117        117       PART-1-1                                        
   118        118       PART-1-1                                        
   119        119       PART-1-1                                        
   120        120       PART-1-1                                        
   121        121       PART-1-1                                        
   122        122       PART-1-1                                        
   123        123       PART-1-1                                        
   124        124       PART-1-1                                        
   125        125       PART-1-1                                        
   126        126       PART-1-1                                        
   127        127       PART-1-1                                        
   128        128       PART-1-1                                        
   129        129       PART-1-1                                        
   130        130       PART-1-1                                        
   131        131       PART-1-1                                        
   132        132       PART-1-1                                        
   133        133       PART-1-1                                        
   134        134       PART-1-1                                        
   135        135       PART-1-1                                        
   136        136       PART-1-1                                        
   137        137       PART-1-1                                        
   138        138       PART-1-1                                        
   139        139       PART-1-1                                        
   140        140       PART-1-1                                        
   141        141       PART-1-1                                        
   142        142       PART-1-1                                        
   143        143       PART-1-1                                        
   144        144       PART-1-1                                        
   145        145       PART-1-1                                        
   146        146       PART-1-1                                        
   147        147       PART-1-1                                        
   148        148       PART-1-1                                        
   149        149       PART-1-1                                        
   150        150       PART-1-1                                        
   151        151       PART-1-1                                        
   152        152       PART-1-1                                        
   153        153       PART-1-1                                        
   154        154       PART-1-1                                        
   155        155       PART-1-1                                        
   156        156       PART-1-1                                        
   157        157       PART-1-1                                        
   158        158       PART-1-1                                        
   159        159       PART-1-1                                        
   160        160       PART-1-1                                        
   161        161       PART-1-1                                        
   162        162       PART-1-1                                        
   163        163       PART-1-1                                        
   164        164       PART-1-1                                        
   165        165       PART-1-1                                        
   166        166       PART-1-1                                        
   167        167       PART-1-1                                        
   168        168       PART-1-1                                        
   169        169       PART-1-1                                        
   170        170       PART-1-1                                        
   171        171       PART-1-1                                        
   172        172       PART-1-1                                        
   173        173       PART-1-1                                        
   174        174       PART-1-1                                        
   175        175       PART-1-1                                        
   176        176       PART-1-1                                        
   177        177       PART-1-1                                        
   178        178       PART-1-1                                        

LOCAL TO GLOBAL NODE AND ELEMENT MAPS
                                                  Local      Global     
                                                  node       node       
                                                  number     number
  Instance name
  PART-1-1                                         1          1         
  PART-1-1                                         2          2         
  PART-1-1                                         3          3         
  PART-1-1                                         4          4         
  PART-1-1                                         5          5         
  PART-1-1                                         6          6         
  PART-1-1                                         7          7         
  PART-1-1                                         8          8         
  PART-1-1                                         9          9         
  PART-1-1                                         10         10        
  PART-1-1                                         11         11        
  PART-1-1                                         12         12        
  PART-1-1                                         13         13        
  PART-1-1                                         14         14        
  PART-1-1                                         15         15        
  PART-1-1                                         16         16        
  PART-1-1                                         17         17        
  PART-1-1                                         18         18        
  PART-1-1                                         19         19        
  PART-1-1                                         20         20        
  PART-1-1                                         21         21        
  PART-1-1                                         22         22        
  PART-1-1                                         23         23        
  PART-1-1                                         24         24        
  PART-1-1                                         25         25        
  PART-1-1                                         26         26        
  PART-1-1                                         27         27        
  PART-1-1                                         28         28        
  PART-1-1                                         29         29        
  PART-1-1                                         30         30        
  PART-1-1                                         31         31        
  PART-1-1                                         32         32        
  PART-1-1                                         33         33        
  PART-1-1                                         34         34        
  PART-1-1                                         35         35        
  PART-1-1                                         36         36        
  PART-1-1                                         37         37        
  PART-1-1                                         38         38        
  PART-1-1                                         39         39        
  PART-1-1                                         40         40        
  PART-1-1                                         41         41        
  PART-1-1                                         42         42        
  PART-1-1                                         43         43        
  PART-1-1                                         44         44        
  PART-1-1                                         45         45        
  PART-1-1                                         46         46        
  PART-1-1                                         47         47        
  PART-1-1                                         48         48        
  PART-1-1                                         49         49        
  PART-1-1                                         50         50        
  PART-1-1                                         51         51        
  PART-1-1                                         52         52        
  PART-1-1                                         53         53        
  PART-1-1                                         54         54        
  PART-1-1                                         55         55        
  PART-1-1                                         56         56        
  PART-1-1                                         57         57        
  PART-1-1                                         58         58        
  PART-1-1                                         59         59        
  PART-1-1                                         60         60        
  PART-1-1                                         61         61        
  PART-1-1                                         62         62        
  PART-1-1                                         63         63        
  PART-1-1                                         64         64        
  PART-1-1                                         65         65        
  PART-1-1                                         66         66        
  PART-1-1                                         67         67        
  PART-1-1                                         68         68        
  PART-1-1                                         69         69        
  PART-1-1                                         70         70        
  PART-1-1                                         71         71        
  PART-1-1                                         72         72        
  PART-1-1                                         73         73        
  PART-1-1                                         74         74        
  PART-1-1                                         75         75        
  PART-1-1                                         76         76        
  PART-1-1                                         77         77        
  PART-1-1                                         78         78        
  PART-1-1                                         79         79        
  PART-1-1                                         80         80        
  PART-1-1                                         81         81        
  PART-1-1                                         82         82        
  PART-1-1                                         83         83        
  PART-1-1                                         84         84        
  PART-1-1                                         85         85        
  PART-1-1                                         86         86        
  PART-1-1                                         87         87        
  PART-1-1                                         88         88        
  PART-1-1                                         89         89        
  PART-1-1                                         90         90        
  PART-1-1                                         91         91        
  PART-1-1                                         92         92        
  PART-1-1                                         93         93        
  PART-1-1                                         94         94        
  PART-1-1                                         95         95        
  PART-1-1                                         96         96        
  PART-1-1                                         97         97        
  PART-1-1                                         98         98        
  PART-1-1                                         99         99        
  PART-1-1                                         100        100       
  PART-1-1                                         101        101       
  PART-1-1                                         102        102       
  PART-1-1                                         103        103       
  PART-1-1                                         104        104       
  PART-1-1                                         105        105       
  PART-1-1                                         106        106       
  PART-1-1                                         107        107       
  PART-1-1                                         108        108       
  PART-1-1                                         109        109       
  PART-1-1                                         110        110       
  PART-1-1                                         111        111       
  PART-1-1                                         112        112       
  PART-1-1                                         113        113       
  PART-1-1                                         114        114       
  PART-1-1                                         115        115       
  PART-1-1                                         116        116       
  PART-1-1                                         117        117       
  PART-1-1                                         118        118       
  PART-1-1                                         119        119       
  PART-1-1                                         120        120       
  PART-1-1                                         121        121       
  PART-1-1                                         122        122       
  PART-1-1                                         123        123       
  PART-1-1                                         124        124       
  PART-1-1                                         125        125       
  PART-1-1                                         126        126       
  PART-1-1                                         127        127       
  PART-1-1                                         128        128       
  PART-1-1                                         129        129       
  PART-1-1                                         130        130       
  PART-1-1                                         131        131       
  PART-1-1                                         132        132       
  PART-1-1                                         133        133       
  PART-1-1                                         134        134       
  PART-1-1                                         135        135       
  PART-1-1                                         136        136       
  PART-1-1                                         137        137       
  PART-1-1                                         138        138       
  PART-1-1                                         139        139       
  PART-1-1                                         140        140       
  PART-1-1                                         141        141       
  PART-1-1                                         142        142       
  PART-1-1                                         143        143       
  PART-1-1                                         144        144       
  PART-1-1                                         145        145       
  PART-1-1                                         146        146       
  PART-1-1                                         147        147       
  PART-1-1                                         148        148       
  PART-1-1                                         149        149       
  PART-1-1                                         150        150       
  PART-1-1                                         151        151       
  PART-1-1                                         152        152       
  PART-1-1                                         153        153       
  PART-1-1                                         154        154       
  PART-1-1                                         155        155       
  PART-1-1                                         156        156       
  PART-1-1                                         157        157       
  PART-1-1                                         158        158       
  PART-1-1                                         159        159       
  PART-1-1                                         160        160       
  PART-1-1                                         161        161       
  PART-1-1                                         162        162       
  PART-1-1                                         163        163       
  PART-1-1                                         164        164       
  PART-1-1                                         165        165       
  PART-1-1                                         166        166       
  PART-1-1                                         167        167       
  PART-1-1                                         168        168       
  PART-1-1                                         169        169       
  PART-1-1                                         170        170       
  PART-1-1                                         171        171       
  PART-1-1                                         172        172       
  PART-1-1                                         173        173       
  PART-1-1                                         174        174       
  PART-1-1                                         175        175       
  PART-1-1                                         176        176       
  PART-1-1                                         177        177       
  PART-1-1                                         178        178       
  PART-1-1                                         179        179       
  PART-1-1                                         180        180       
  PART-1-1                                         181        181       
  PART-1-1                                         182        182       
  PART-1-1                                         183        183       
  PART-1-1                                         184        184       
  PART-1-1                                         185        185       
  PART-1-1                                         186        186       
  PART-1-1                                         187        187       
  PART-1-1                                         188        188       
  PART-1-1                                         189        189       
  PART-1-1                                         190        190       
  PART-1-1                                         191        191       
  PART-1-1                                         192        192       
  PART-1-1                                         193        193       
  PART-1-1                                         194        194       
  PART-1-1                                         195        195       
  PART-1-1                                         196        196       
  PART-1-1                                         197        197       
  PART-1-1                                         198        198       
  PART-1-1                                         199        199       
  PART-1-1                                         200        200       
  PART-1-1                                         201        201       
  PART-1-1                                         202        202       
  PART-1-1                                         203        203       
  PART-1-1                                         204        204       
  PART-1-1                                         205        205       
  PART-1-1                                         206        206       
  PART-1-1                                         207        207       
  PART-1-1                                         208        208       
  PART-1-1                                         209        209       
  PART-1-1                                         210        210       
  PART-1-1                                         211        211       
  PART-1-1                                         212        212       
  PART-1-1                                         213        213       
  PART-1-1                                         214        214       
  PART-1-1                                         215        215       
  PART-1-1                                         216        216       
  PART-1-1                                         217        217       
  PART-1-1                                         218        218       
  PART-1-1                                         219        219       
  PART-1-1                                         220        220       
  PART-1-1                                         221        221       
  PART-1-1                                         222        222       
  PART-1-1                                         223        223       
  PART-1-1                                         224        224       
  PART-1-1                                         225        225       
  PART-1-1                                         226        226       
  PART-1-1                                         227        227       
  PART-1-1                                         228        228       
  PART-1-1                                         229        229       
  PART-1-1                                         230        230       
  PART-1-1                                         231        231       
  PART-1-1                                         232        232       
  PART-1-1                                         233        233       
  PART-1-1                                         234        234       
  PART-1-1                                         235        235       
  PART-1-1                                         236        236       
  PART-1-1                                         237        237       
  PART-1-1                                         238        238       
  PART-1-1                                         239        239       
  PART-1-1                                         240        240       
  PART-1-1                                         241        241       
  PART-1-1                                         242        242       
  PART-1-1                                         243        243       
  PART-1-1                                         244        244       
  PART-1-1                                         245        245       
  PART-1-1                                         246        246       
  PART-1-1                                         247        247       
  PART-1-1                                         248        248       
  PART-1-1                                         249        249       
  PART-1-1                                         250        250       
  PART-1-1                                         251        251       
  PART-1-1                                         252        252       
  PART-1-1                                         253        253       
  PART-1-1                                         254        254       
  PART-1-1                                         255        255       
  PART-1-1                                         256        256       
  PART-1-1                                         257        257       
  PART-1-1                                         258        258       
  PART-1-1                                         259        259       
  PART-1-1                                         260        260       
  PART-1-1                                         261        261       
  PART-1-1                                         262        262       
  PART-1-1                                         263        263       
  PART-1-1                                         264        264       
  PART-1-1                                         265        265       
  PART-1-1                                         266        266       
  PART-1-1                                         267        267       
  PART-1-1                                         268        268       
  PART-1-1                                         269        269       
  PART-1-1                                         270        270       
  PART-1-1                                         271        271       
  PART-1-1                                         272        272       
  PART-1-1                                         273        273       
  PART-1-1                                         274        274       
  PART-1-1                                         275        275       
  PART-1-1                                         276        276       
  PART-1-1                                         277        277       
  PART-1-1                                         278        278       
  PART-1-1                                         279        279       
  PART-1-1                                         280        280       
  PART-1-1                                         281        281       
  PART-1-1                                         282        282       
  PART-1-1                                         283        283       
  PART-1-1                                         284        284       
  PART-1-1                                         285        285       
  PART-1-1                                         286        286       
  PART-1-1                                         287        287       
  PART-1-1                                         288        288       
  PART-1-1                                         289        289       
  PART-1-1                                         290        290       
  PART-1-1                                         291        291       
  PART-1-1                                         292        292       
  PART-1-1                                         293        293       
  PART-1-1                                         294        294       
  PART-1-1                                         295        295       
  PART-1-1                                         296        296       
  PART-1-1                                         297        297       
  PART-1-1                                         298        298       
  PART-1-1                                         299        299       
  PART-1-1                                         300        300       
  PART-1-1                                         301        301       
  PART-1-1                                         302        302       
  PART-1-1                                         303        303       
  PART-1-1                                         304        304       
  PART-1-1                                         305        305       
  PART-1-1                                         306        306       
  PART-1-1                                         307        307       
  PART-1-1                                         308        308       
  PART-1-1                                         309        309       
  PART-1-1                                         310        310       
  PART-1-1                                         311        311       
  PART-1-1                                         312        312       
  PART-1-1                                         313        313       
  PART-1-1                                         314        314       
  PART-1-1                                         315        315       
  PART-1-1                                         316        316       
  PART-1-1                                         317        317       
  PART-1-1                                         318        318       
  PART-1-1                                         319        319       
  PART-1-1                                         320        320       
  PART-1-1                                         321        321       
  PART-1-1                                         322        322       
  PART-1-1                                         323        323       
  PART-1-1                                         324        324       
  PART-1-1                                         325        325       
  PART-1-1                                         326        326       
  PART-1-1                                         327        327       
  PART-1-1                                         328        328       
  PART-1-1                                         329        329       
  PART-1-1                                         330        330       
  PART-1-1                                         331        331       
  PART-1-1                                         332        332       
  PART-1-1                                         333        333       
  PART-1-1                                         334        334       
  PART-1-1                                         335        335       
  PART-1-1                                         336        336       
  PART-1-1                                         337        337       
  PART-1-1                                         338        338       
  PART-1-1                                         339        339       
  PART-1-1                                         340        340       
  PART-1-1                                         341        341       
  PART-1-1                                         342        342       
  PART-1-1                                         343        343       
  PART-1-1                                         344        344       
  PART-1-1                                         345        345       
  PART-1-1                                         346        346       
  PART-1-1                                         347        347       
  PART-1-1                                         348        348       
  PART-1-1                                         349        349       
  PART-1-1                                         350        350       
  PART-1-1                                         351        351       
  PART-1-1                                         352        352       
  PART-1-1                                         353        353       
  PART-1-1                                         354        354       
  PART-1-1                                         355        355       
  PART-1-1                                         356        356       
  PART-1-1                                         357        357       
  PART-1-1                                         358        358       
  PART-1-1                                         359        359       
  PART-1-1                                         360        360       
  PART-1-1                                         361        361       
  PART-1-1                                         362        362       
  PART-1-1                                         363        363       
  PART-1-1                                         364        364       
  PART-1-1                                         365        365       
  PART-1-1                                         366        366       
  PART-1-1                                         367        367       
  PART-1-1                                         368        368       
  PART-1-1                                         369        369       
  PART-1-1                                         370        370       
  PART-1-1                                         371        371       
  PART-1-1                                         372        372       
  PART-1-1                                         373        373       
  PART-1-1                                         374        374       

                                                  Local      Global     
                                                  element    element    
                                                  number     number
  Instance name
  PART-1-1                                         1          1         
  PART-1-1                                         2          2         
  PART-1-1                                         3          3         
  PART-1-1                                         4          4         
  PART-1-1                                         5          5         
  PART-1-1                                         6          6         
  PART-1-1                                         7          7         
  PART-1-1                                         8          8         
  PART-1-1                                         9          9         
  PART-1-1                                         10         10        
  PART-1-1                                         11         11        
  PART-1-1                                         12         12        
  PART-1-1                                         13         13        
  PART-1-1                                         14         14        
  PART-1-1                                         15         15        
  PART-1-1                                         16         16        
  PART-1-1                                         17         17        
  PART-1-1                                         18         18        
  PART-1-1                                         19         19        
  PART-1-1                                         20         20        
  PART-1-1                                         21         21        
  PART-1-1                                         22         22        
  PART-1-1                                         23         23        
  PART-1-1                                         24         24        
  PART-1-1                                         25         25        
  PART-1-1                                         26         26        
  PART-1-1                                         27         27        
  PART-1-1                                         28         28        
  PART-1-1                                         29         29        
  PART-1-1                                         30         30        
  PART-1-1                                         31         31        
  PART-1-1                                         32         32        
  PART-1-1                                         33         33        
  PART-1-1                                         34         34        
  PART-1-1                                         35         35        
  PART-1-1                                         36         36        
  PART-1-1                                         37         37        
  PART-1-1                                         38         38        
  PART-1-1                                         39         39        
  PART-1-1                                         40         40        
  PART-1-1                                         41         41        
  PART-1-1                                         42         42        
  PART-1-1                                         43         43        
  PART-1-1                                         44         44        
  PART-1-1                                         45         45        
  PART-1-1                                         46         46        
  PART-1-1                                         47         47        
  PART-1-1                                         48         48        
  PART-1-1                                         49         49        
  PART-1-1                                         50         50        
  PART-1-1                                         51         51        
  PART-1-1                                         52         52        
  PART-1-1                                         53         53        
  PART-1-1                                         54         54        
  PART-1-1                                         55         55        
  PART-1-1                                         56         56        
  PART-1-1                                         57         57        
  PART-1-1                                         58         58        
  PART-1-1                                         59         59        
  PART-1-1                                         60         60        
  PART-1-1                                         61         61        
  PART-1-1                                         62         62        
  PART-1-1                                         63         63        
  PART-1-1                                         64         64        
  PART-1-1                                         65         65        
  PART-1-1                                         66         66        
  PART-1-1                                         67         67        
  PART-1-1                                         68         68        
  PART-1-1                                         69         69        
  PART-1-1                                         70         70        
  PART-1-1                                         71         71        
  PART-1-1                                         72         72        
  PART-1-1                                         73         73        
  PART-1-1                                         74         74        
  PART-1-1                                         75         75        
  PART-1-1                                         76         76        
  PART-1-1                                         77         77        
  PART-1-1                                         78         78        
  PART-1-1                                         79         79        
  PART-1-1                                         80         80        
  PART-1-1                                         81         81        
  PART-1-1                                         82         82        
  PART-1-1                                         83         83        
  PART-1-1                                         84         84        
  PART-1-1                                         85         85        
  PART-1-1                                         86         86        
[...]
         75     -6.1283E-02 -6.7099E-02  1.6038E-04 
         76     -7.0915E-02 -0.1503     -1.3555E-03 
         77     -5.0233E-02 -0.2131      4.5362E-03 
         78     -6.1173E-02 -0.2848     -4.8099E-03 
         79      6.8029E-03 -0.2766     -2.2802E-04 
         80      1.0380E-02 -0.2235     -1.9900E-03 
         81      1.1877E-02 -0.1426     -8.9690E-04 
         82      1.2211E-02 -7.3988E-02  2.8022E-05 
         83      1.9003E-02  1.3397E-02 -1.5980E-03 
         84      1.1895E-02  7.5801E-02  7.2729E-04 
         85      2.6909E-02  0.1470     -1.7825E-03 
         86      1.2799E-02  0.1800     -8.2446E-04 
         87      2.9932E-02  0.2128      8.0548E-04 
         88      0.9956      0.3291      1.1774E-10 
         89      0.9703      9.8261E-02 -1.3677E-03 
         90       1.000     -7.4122E-02  1.3327E-10 
         91      0.9703      9.8261E-02  1.3677E-03 
         92      0.7716     -0.1077     -2.4889E-03 
         93      0.6040     -6.0434E-02 -1.8294E-03 
         94      0.3918     -8.4617E-02 -7.8749E-03 
         95      0.2379     -2.2052E-02 -1.3336E-02 
         96      0.2660      0.2729      7.4960E-03 
         97      0.3849      0.2715      4.2158E-03 
         98      0.6056      0.3256      6.1517E-03 
         99      0.7732      0.2931     -2.2813E-03 
        100      0.2379     -2.2052E-02  1.3336E-02 
        101      0.3918     -8.4617E-02  7.8749E-03 
        102      0.6040     -6.0434E-02  1.8294E-03 
        103      0.7716     -0.1077      2.4889E-03 
        104      0.7732      0.2931      2.2813E-03 
        105      0.6056      0.3256     -6.1517E-03 
        106      0.3849      0.2715     -4.2158E-03 
        107      0.2660      0.2729     -7.4960E-03 
        108      1.6206E-02  0.2263      5.8392E-03 
        109      1.6206E-02  0.2263     -5.8392E-03 
        110      1.3422E-02  0.2194      3.3328E-02 
        111     -1.4129E-02  0.1908      1.1599E-02 
        112     -3.0430E-02  0.1457      1.3106E-02 
        113     -5.0553E-02  8.5182E-02  8.9786E-03 
        114     -5.9612E-02  8.7576E-03  3.2231E-03 
        115     -6.6885E-02 -6.9046E-02  4.1050E-03 
        116     -6.0726E-02 -0.1491     -5.1944E-03 
        117     -6.5844E-02 -0.2227      3.3666E-04 
        118     -3.1970E-02 -0.2820     -7.4848E-03 
        119      3.3736E-02  0.2116     -2.5159E-02 
        120      5.2250E-02  0.1929     -8.4565E-03 
        121      7.2535E-02  0.1486     -1.2189E-02 
        122      8.4277E-02  8.4622E-02 -4.2838E-03 
        123      9.1266E-02  1.0900E-02 -3.4459E-03 
        124      9.3074E-02 -6.7263E-02  7.4313E-04 
        125      8.6376E-02 -0.1500      6.0934E-03 
        126      7.9755E-02 -0.2178      5.6660E-03 
        127      6.2957E-02 -0.2893      1.2017E-02 
        128      3.3736E-02  0.2116      2.5159E-02 
        129      5.2250E-02  0.1929      8.4565E-03 
        130      7.2535E-02  0.1486      1.2189E-02 
        131      8.4277E-02  8.4622E-02  4.2838E-03 
        132      9.1266E-02  1.0900E-02  3.4459E-03 
        133      9.3074E-02 -6.7263E-02 -7.4313E-04 
        134      8.6376E-02 -0.1500     -6.0934E-03 
        135      7.9755E-02 -0.2178     -5.6660E-03 
        136      6.2957E-02 -0.2893     -1.2017E-02 
        137      1.3422E-02  0.2194     -3.3328E-02 
        138     -1.4129E-02  0.1908     -1.1599E-02 
        139     -3.0430E-02  0.1457     -1.3106E-02 
        140     -5.0553E-02  8.5182E-02 -8.9786E-03 
        141     -5.9612E-02  8.7576E-03 -3.2231E-03 
        142     -6.6885E-02 -6.9046E-02 -4.1050E-03 
        143     -6.0726E-02 -0.1491      5.1944E-03 
        144     -6.5844E-02 -0.2227     -3.3666E-04 
        145     -3.1970E-02 -0.2820      7.4848E-03 
        146      1.3748E-02 -0.3333      7.4458E-05 
        147      4.5475E-02 -0.3235      2.8163E-03 
        148      6.9129E-02 -0.3221     -3.0194E-11 
        149      4.5475E-02 -0.3235     -2.8163E-03 
        150      1.3748E-02 -0.3333     -7.4459E-05 
        151      9.2643E-03 -0.3137      3.4965E-02 
        152      1.0563E-02 -0.3901      7.6158E-02 
        153      1.3892E-02 -0.4230      7.4570E-02 
        154      1.6147E-02 -0.3785      4.2747E-02 
        155      0.1076     -0.3503      7.1445E-02 
        156      6.3664E-02 -0.3871      0.1895     
        157      3.1580E-03 -0.3633      0.1892     
        158     -4.2135E-02 -0.2964      8.9976E-02 
        159      9.2643E-03 -0.3137     -3.4965E-02 
        160      1.0563E-02 -0.3901     -7.6158E-02 
        161      1.3892E-02 -0.4230     -7.4570E-02 
        162      1.6147E-02 -0.3785     -4.2747E-02 
        163      2.5917E-02 -0.3090      2.4755E-02 
        164      2.8388E-04 -0.2629      6.8779E-02 
        165     -2.4922E-02 -0.2410      6.9327E-02 
        166     -4.1976E-02 -0.2383      2.7643E-02 
        167     -4.1976E-02 -0.2383     -2.7643E-02 
        168     -2.4922E-02 -0.2410     -6.9327E-02 
        169      2.8388E-04 -0.2629     -6.8779E-02 
        170      2.5917E-02 -0.3090     -2.4755E-02 
        171      0.1602     -0.2535      8.1415E-02 
        172      8.8643E-02 -0.2841      0.1801     
        173     -1.9910E-02 -0.3028      0.1780     
        174     -0.1082     -0.3512      6.5572E-02 
        175     -0.1082     -0.3512     -6.5572E-02 
        176     -1.9910E-02 -0.3028     -0.1780     
        177      8.8643E-02 -0.2841     -0.1801     
        178      0.1602     -0.2535     -8.1415E-02 
        179     -4.2135E-02 -0.2964     -8.9976E-02 
        180      3.1580E-03 -0.3633     -0.1892     
        181      6.3664E-02 -0.3871     -0.1895     
        182      0.1076     -0.3503     -7.1445E-02 
        183      3.2718E-02 -0.2117     -1.8604E-11 
        184      5.5389E-03 -0.2194     -3.2743E-03 
        185     -4.6322E-02 -0.2204     -1.5704E-03 
        186     -7.0325E-02 -0.2222     -1.2481E-11 
        187     -4.6322E-02 -0.2204      1.5704E-03 
        188      5.5389E-03 -0.2194      3.2743E-03 
        189      5.7131E-02 -0.2062     -2.1692E-11 
        190     -5.0735E-02 -0.1596     -4.6982E-03 
        191     -4.8706E-02 -0.1003      5.2893E-03 
        192     -3.6568E-02 -4.7787E-02  4.5432E-03 
        193     -2.4299E-02 -1.4959E-02  1.0804E-02 
        194     -2.4299E-02 -1.4959E-02 -1.0804E-02 
        195     -3.6568E-02 -4.7787E-02 -4.5432E-03 
        196     -4.8706E-02 -0.1003     -5.2893E-03 
        197     -5.0735E-02 -0.1596      4.6982E-03 
        198      5.4253E-02 -0.1561      7.6764E-04 
        199      6.8114E-02 -0.1046     -8.4256E-03 
        200      4.0687E-02 -4.7565E-02 -6.1321E-03 
        201      3.0497E-02 -1.7097E-02 -1.4032E-02 
        202      3.0497E-02 -1.7097E-02  1.4032E-02 
        203      4.0687E-02 -4.7565E-02  6.1321E-03 
        204      6.8114E-02 -0.1046      8.4256E-03 
        205      5.4253E-02 -0.1561     -7.6764E-04 
        214      4.2434E-02  2.1286E-02  3.0425E-13 
        215      1.1695E-02  0.1233      6.0419E-03 
        216      1.1695E-02  0.1233     -6.0419E-03 
        217      0.1069      0.1183      3.7528E-11 
        218     -2.6793E-02  0.1203     -2.1284E-11 
        219      1.6521E-02 -0.2711     -4.1432E-11 
        220      2.9333E-03 -0.2248     -3.4886E-11 
        221      1.6617E-02 -0.1394     -2.9712E-11 
        222      8.1444E-03 -7.6985E-02 -2.5297E-11 
        223      2.4201E-02  1.5823E-02 -1.6691E-11 
        224      4.3660E-03  7.0239E-02 -1.5807E-11 
        225      3.7239E-02  0.1489     -5.8467E-12 
        226      4.8917E-04  0.1709     -5.7569E-12 
        227      4.1843E-02  0.2236     -1.1145E-12 
        228     -5.0742E-02 -0.2871     -5.1903E-11 
        229     -6.0546E-02 -0.2078     -5.5558E-11 
        230     -6.3637E-02 -0.1535     -4.7708E-11 
        231     -6.2446E-02 -6.3579E-02 -4.0360E-11 
        232     -6.7193E-02  1.5089E-04 -3.6834E-11 
        233     -3.7855E-02  8.3363E-02 -2.5721E-11 
        234     -4.8865E-02  0.1264     -2.2154E-11 
        235      2.7747E-03  0.1935     -1.0260E-11 
        236      1.8135E-02  0.1781      7.2647E-12 
        237      0.9701      9.2719E-02  1.2275E-10 
        238      0.2160      9.2753E-02  1.3032E-03 
        239      0.4143      0.1354      5.4819E-04 
        240      0.5747      9.0657E-02  1.2299E-03 
        241      0.7998      0.1311     -1.2367E-03 
        242      0.2160      9.2753E-02 -1.3032E-03 
        243      0.4143      0.1354     -5.4819E-04 
        244      0.5747      9.0657E-02 -1.2299E-03 
        245      0.7998      0.1311      1.2367E-03 
        246      0.2632      0.2808      3.2018E-11 
        247      0.3889      0.2678      4.5788E-11 
        248      0.6053      0.3291      7.3090E-11 
        249      0.7752      0.2966      8.5719E-11 
        250      0.2491     -2.2660E-02  2.6347E-11 
        251      0.3952     -8.8521E-02  5.1197E-11 
        252      0.6067     -6.0942E-02  8.2009E-11 
        253      0.7713     -0.1076      1.0373E-10 
        254      2.2268E-02  0.2124      2.1042E-03 
        255      2.2711E-02  0.1982      1.1662E-03 
        256      1.8889E-02  0.1487      2.0354E-03 
        257      1.7078E-02  8.7095E-02  6.5730E-04 
        258      1.6990E-02  1.1149E-02  1.2722E-03 
        259      1.1526E-02 -6.9129E-02  1.6379E-03 
        260      1.3729E-02 -0.1491      6.0485E-04 
        261      7.7355E-03 -0.2236      3.5551E-03 
        262      1.0488E-02 -0.2868      2.9962E-04 
        263      3.0597E-02  0.2034     -1.1505E-02 
        264      3.5098E-03  0.2033     -9.9103E-12 
        265      3.0597E-02  0.2034      1.1505E-02 
        266      6.1723E-02  0.1864     -6.4553E-03 
        267      7.6995E-02  0.1889      5.8785E-12 
        268      6.1723E-02  0.1864      6.4553E-03 
        269      6.5021E-02  0.1340     -4.2536E-03 
        270      5.4139E-02  0.1241      1.0639E-12 
        271      6.5021E-02  0.1340      4.2536E-03 
        272      9.1893E-02  8.5345E-02 -2.5812E-03 
        273      9.6836E-02  9.1148E-02  3.9770E-12 
        274      9.1893E-02  8.5345E-02  2.5812E-03 
        275      8.7681E-02  2.8821E-03 -1.9192E-03 
        276      8.3771E-02 -5.0160E-03 -4.2719E-12 
        277      8.7681E-02  2.8821E-03  1.9192E-03 
        278      9.6440E-02 -6.4190E-02  9.5424E-04 
        279      9.7475E-02 -5.8180E-02 -5.5223E-12 
        280      9.6440E-02 -6.4190E-02 -9.5424E-04 
        281      8.7282E-02 -0.1490      1.9759E-03 
        282      8.3609E-02 -0.1536     -1.2400E-11 
        283      8.7282E-02 -0.1490     -1.9759E-03 
        284      7.8445E-02 -0.2145      4.0582E-03 
        285      8.3355E-02 -0.2090     -1.7831E-11 
        286      7.8445E-02 -0.2145     -4.0582E-03 
        287      6.4331E-02 -0.2790      4.3379E-03 
        288      5.1786E-02 -0.2794     -2.4021E-11 
        289      6.4331E-02 -0.2790     -4.3379E-03 
        290      2.2268E-02  0.2124     -2.1042E-03 
        291      2.2711E-02  0.1982     -1.1662E-03 
        292      1.8889E-02  0.1487     -2.0354E-03 
        293      1.7078E-02  8.7095E-02 -6.5730E-04 
        294      1.6990E-02  1.1149E-02 -1.2722E-03 
        295      1.1526E-02 -6.9129E-02 -1.6379E-03 
        296      1.3729E-02 -0.1491     -6.0485E-04 
        297      7.7355E-03 -0.2236     -3.5551E-03 
        298      1.0488E-02 -0.2868     -2.9962E-04 
        299     -7.9510E-02 -0.4305      2.3230E-11 
        300     -1.8018E-02 -0.5104      9.2838E-11 
        301      5.1603E-02 -0.4739      9.7306E-11 
        302      0.1127     -0.3554      2.6173E-11 
        303      1.8773E-02 -0.3954     -3.8841E-02 
        304      0.1084     -0.4216     -1.0319E-10 
        305      1.8773E-02 -0.3954      3.8841E-02 
        306     -6.8918E-03 -0.4280     -6.9130E-02 
        307      3.3765E-02 -0.4832     -1.6907E-10 
        308     -6.8918E-03 -0.4280      6.9130E-02 
        309     -1.6879E-02 -0.4076     -7.1467E-02 
        310     -6.0461E-02 -0.4670     -1.6367E-10 
        311     -1.6879E-02 -0.4076      7.1467E-02 
        312     -3.9150E-02 -0.3112     -3.0880E-02 
        313     -0.1301     -0.3364     -7.6035E-11 
        314     -3.9150E-02 -0.3112      3.0880E-02 
        315     -2.8232E-04 -0.3235      3.6260E-02 
        316      1.0137E-02 -0.2830      8.0025E-02 
        317      9.1169E-03 -0.2557      7.9961E-02 
        318      1.6705E-02 -0.2481      3.6714E-02 
        319     -2.8232E-04 -0.3235     -3.6260E-02 
        320      1.0137E-02 -0.2830     -8.0025E-02 
        321      9.1169E-03 -0.2557     -7.9961E-02 
        322      1.6705E-02 -0.2481     -3.6714E-02 
        326     -5.3183E-02 -0.1544      1.6486E-03 
        327     -3.4499E-02 -0.1510     -5.3956E-12 
        328     -5.3183E-02 -0.1544     -1.6486E-03 
        329     -4.6605E-02 -0.1072     -9.4706E-04 
        330     -5.6208E-02 -0.1107     -4.1174E-12 
        331     -4.6605E-02 -0.1072      9.4706E-04 
        332     -4.2231E-02 -5.0943E-02 -3.6041E-03 
        333     -3.5032E-02 -5.0959E-02 -9.8233E-13 
        334     -4.2231E-02 -5.0943E-02  3.6041E-03 
        335     -2.0100E-02 -2.2041E-02 -1.8380E-03 
        336     -2.4542E-02 -2.3171E-02  5.0677E-13 
        337     -2.0100E-02 -2.2041E-02  1.8380E-03 
        338      1.0261E-02 -0.1614      5.7373E-05 
        339      5.5926E-03 -9.6832E-02 -2.7400E-03 
        340      3.8768E-03 -4.9819E-02 -2.2524E-04 
        341      2.3162E-03 -7.8902E-03 -1.7169E-03 
        342      1.0261E-02 -0.1614     -5.7374E-05 
        343      5.5926E-03 -9.6832E-02  2.7400E-03 
        344      3.8768E-03 -4.9819E-02  2.2524E-04 
        345      2.3162E-03 -7.8902E-03  1.7169E-03 
        346      7.9002E-02 -0.1595     -2.3880E-03 
        347      6.6767E-02 -0.1648     -1.9566E-11 
        348      7.9002E-02 -0.1595      2.3880E-03 
        349      5.2797E-02 -0.1059     -4.7620E-04 
        350      6.1253E-02 -0.1031     -1.2283E-11 
        351      5.2797E-02 -0.1059      4.7620E-04 
        352      5.1928E-02 -5.3424E-02 -5.9260E-03 
        353      4.2763E-02 -5.7010E-02 -6.2264E-12 
        354      5.1928E-02 -5.3424E-02  5.9260E-03 
        355      2.3313E-02 -2.3661E-02 -2.3215E-03 
        356      2.9095E-02 -2.3464E-02 -2.6290E-12 
        357      2.3313E-02 -2.3661E-02  2.3215E-03 
        358      8.6109E-03  0.1291      1.3663E-11 
        359      0.2202      9.6396E-02  3.3045E-11 
        360      0.4181      0.1316      5.3547E-11 
        361      0.5759      9.2184E-02  7.4901E-11 
        362      0.8007      0.1330      9.7739E-11 
        363      7.0599E-03 -0.1610     -3.7607E-04 
        364      7.0599E-03 -0.1610      3.7607E-04 
        365     -4.8324E-03 -0.1624     -1.2657E-11 
        366      5.3339E-03 -0.1005     -8.1476E-04 
        367      5.3339E-03 -0.1005      8.1476E-04 
        368      1.1449E-02 -0.1004     -7.9243E-12 
        369      4.8612E-03 -5.4671E-02 -7.7860E-04 
        370      4.8612E-03 -5.4671E-02  7.7860E-04 
        371      1.9770E-03 -5.6835E-02 -4.0471E-12 
        372      8.8934E-04 -1.3315E-02 -2.0156E-04 
        373      8.8934E-04 -1.3315E-02  2.0156E-04 
        374      1.6291E-03 -1.2310E-02 -1.4300E-12 

 MAXIMUM          1.000      0.3371      0.1895    
 AT NODE                90          15         156

 MINIMUM        -0.1301     -0.5104     -0.1895    
 AT NODE               313         300         181
1

   Abaqus 6.12-2                                  Date 21-Jun-2013   Time 11:13:08
   

                                                                                               STEP    2  INCREMENT    1
                                                                                          TIME COMPLETED IN THIS STEP   0.00    


                        S T E P       2     M A T R I X  G E N E R A T E

  THE FOLLOWING GLOBAL MATRICES WILL BE GENERATED AND WRITTEN TO FrequencyJob_X2.sim

  STIFFNESS
  MASS

  THE FOLLOWING GLOBAL MATRICES WILL BE OUTPUTTED TO THE FOLLOWING TEXT FILES

  STIFFNESS          TO FrequencyJob_STIF2.mtx
  MASS               TO FrequencyJob_MASS2.mtx
  
                   M E M O R Y   E S T I M A T E
  
 PROCESS      FLOATING PT       MINIMUM MEMORY        MEMORY TO
              OPERATIONS           REQUIRED          MINIMIZE I/O
             PER ITERATION         (MBYTES)           (MBYTES)
  
     1         0.00E+000               16                 16
  
 NOTE:
      (1) SINCE ABAQUS DOES NOT PRE-ALLOCATE MEMORY AND ONLY ALLOCATES MEMORY AS NEEDED DURING THE ANALYSIS,
          THE MEMORY REQUIREMENT PRINTED HERE CAN ONLY BE VIEWED AS A GENERAL GUIDELINE BASED ON THE BEST
          KNOWLEDGE AVAILABLE AT THE BEGINNING OF A STEP BEFORE THE SOLUTION PROCESS HAS BEGUN.
      (2) THE ESTIMATE IS NORMALLY UPDATED AT THE BEGINNING OF EVERY STEP. IT IS THE MAXIMUM VALUE OF THE
          ESTIMATE FROM THE CURRENT STEP TO THE LAST STEP OF THE ANALYSIS, WITH UNSYMMETRIC SOLUTION TAKEN
          INTO ACCOUNT IF APPLICABLE. 
      (3) SINCE THE ESTIMATE IS BASED ON THE ACTIVE DEGREES OF FREEDOM IN THE FIRST ITERATION OF THE 
          CURRENT STEP, THE MEMORY ESTIMATE MIGHT BE SIGNIFICANTLY DIFFERENT THAN ACTUAL USAGE FOR 
          PROBLEMS WITH SUBSTANTIAL CHANGES IN ACTIVE DEGREES OF FREEDOM BETWEEN STEPS (OR EVEN WITHIN
          THE SAME STEP). EXAMPLES ARE: PROBLEMS WITH SIGNIFICANT CONTACT CHANGES, PROBLEMS WITH MODEL
          CHANGE, PROBLEMS WITH BOTH STATIC STEP AND STEADY STATE DYNAMIC PROCEDURES WHERE ACOUSTIC 
          ELEMENTS WILL ONLY BE ACTIVATED IN THE STEADY STATE DYNAMIC STEPS.
      (4) FOR MULTI-PROCESS EXECUTION, THE ESTIMATED VALUE OF FLOATING POINT OPERATIONS FOR EACH PROCESS
          IS BASED ON AN INITIAL SCHEDULING OF OPERATIONS AND MIGHT NOT REFLECT THE ACTUAL FLOATING 
          POINT OPERATIONS COMPLETED ON EACH PROCESS. OPERATIONS ARE DYNAMICALLY BALANCED DURING EXECUTION, 
          SO THE ACTUAL BALANCE OF OPERATIONS BETWEEN PROCESSES IS EXPECTED TO BE BETTER THAN THE ESTIMATE
          PRINTED HERE.
      (5) THE UPPER LIMIT OF MEMORY THAT CAN BE ALLOCATED BY ABAQUS WILL IN GENERAL DEPEND ON THE VALUE OF
          THE "MEMORY" PARAMETER AND THE AMOUNT OF PHYSICAL MEMORY AVAILABLE ON THE MACHINE. PLEASE SEE
          THE "ABAQUS ANALYSIS USER'S MANUAL" FOR MORE DETAILS. THE ACTUAL USAGE OF MEMORY AND OF DISK
          SPACE FOR SCRATCH DATA WILL DEPEND ON THIS UPPER LIMIT AS WELL AS THE MEMORY REQUIRED TO MINIMIZE
          I/O. IF THE MEMORY UPPER LIMIT IS GREATER THAN THE MEMORY REQUIRED TO MINIMIZE I/O, THEN THE ACTUAL
          MEMORY USAGE WILL BE CLOSE TO THE ESTIMATED "MEMORY TO MINIMIZE I/O" VALUE, AND THE SCRATCH DISK
          USAGE WILL BE CLOSE-TO-ZERO; OTHERWISE, THE ACTUAL MEMORY USED WILL BE CLOSE TO THE PREVIOUSLY
          MENTIONED MEMORY LIMIT, AND THE SCRATCH DISK USAGE WILL BE ROUGHLY PROPORTIONAL TO THE DIFFERENCE
          BETWEEN THE ESTIMATED "MEMORY TO MINIMIZE I/O" AND THE MEMORY UPPER LIMIT. HOWEVER ACCURATE
          ESTIMATE OF THE SCRATCH DISK SPACE IS NOT POSSIBLE.
      (6) USING "*RESTART, WRITE" CAN GENERATE A LARGE AMOUNT OF DATA WRITTEN IN THE WORK DIRECTORY.


          THE ANALYSIS HAS BEEN COMPLETED



                              ANALYSIS COMPLETE
                              WITH      3 WARNING MESSAGES ON THE DAT FILE



     JOB TIME SUMMARY
       USER TIME (SEC)      =  0.30000    
       SYSTEM TIME (SEC)    =  0.10000    
       TOTAL CPU TIME (SEC) =  0.40000    
       WALLCLOCK TIME (SEC) =          2
