*Heading
 analysis the eigen frequecies of the rod and get the mass and stiffness matrix
** Job name: RodFrequency Model name: Rod
** Generated by: Abaqus/CAE Student Edition 6.12-2
*Preprint, echo=NO, model=NO, history=NO, contact=NO
**
** PARTS
**
*Part, name=CAT_131210_Pleuel
*Node
      1,           0.,   7.07232141,  -43.9344101
      2,           0.,   143.536163,   -21.967205
      3,           0.,  -8.25012875,   43.7285423
      4,           0.,  -22.5942726,   38.3373032
      5,           0.,  -34.2591629,   28.3999939
      6,           0.,  -41.8615761,    15.094985
      7,           0.,        -44.5,  -4.34949854e-10
      8,           0.,  -41.8615761,   -15.094985
      9,           0.,  -34.2591629,  -28.3999939
     10,           0.,  -22.5942726,  -38.3373032
     11,           0.,  -8.25012875,  -43.7285423
     12,           0.,   7.07232141,   43.9344101
     13,           0.,   143.536163,    21.967205
     14,           0.,   156.937271,  -14.4288416
     15,           0.,       162.25,  -6.90058677e-09
     16,           0.,   156.937271,   14.4288416
     17,           0.,  -21.7333317,  -5.82342863
     18,           0.,  -19.4855709,       -11.25
     19,           0.,  -15.9099026,  -15.9099026
     20,           0.,       -11.25,  -19.4855709
** ... 740 like lines cut
*Element, type=C3D8R
  1,  24,  23,  80,  70, 176, 175, 232, 222
  2,  22,  21,  84,  75, 174, 173, 236, 227
  3,  72,  18,  17,  68, 224, 170, 169, 220
  4,  20,  19,  90,  93, 172, 171, 242, 245
  5,  10,  93,  90,   9, 162, 245, 242, 161
  6,  28,  66,  68,  17, 180, 218, 220, 169
  7,  88,   7,   8,  95, 240, 159, 160, 247
  8,  90,  72,  68,  95, 242, 224, 220, 247
  9,  40,  77,  66,  28, 192, 229, 218, 180
 10,  39,  78,  77,  40, 191, 230, 229, 192
 11,  38,  73,  78,  39, 190, 225, 230, 191
 12,  38,  37,  71,  73, 190, 189, 223, 225
 13,  36,  35, 140,  81, 188, 187, 292, 233
 14,  37,  36,  81,  71, 189, 188, 233, 223
 15,  12,   3,  92, 103, 164, 155, 244, 255
 16,  92, 140,  85, 103, 244, 292, 237, 255
 17,  94, 109,  58,  57, 246, 261, 210, 209
 18,  35,  34,  85, 140, 187, 186, 237, 292
 19,  64, 131,  47,  13, 216, 283, 199, 165
 20,  47,  46,  16,  13, 199, 198, 168, 165
** ... 464 like lines cut
*Nset, nset=Set-2, generate
   1,  760,    1
*Elset, elset=Set-2, generate
   1,  484,    1
*Nset, nset=bigHoleLeft
  28,  29,  30,  31,  32,  33,  34,  35,  36,  37,  38,  39,  40, 180, 181, 182
 183, 184, 185, 186, 187, 188, 189, 190, 191, 192, 332, 333, 334, 335, 336, 337
 338, 339, 340, 341, 342, 343, 344, 484, 485, 486, 487, 488, 489, 490, 491, 492
 493, 494, 495, 496, 636, 637, 638, 639, 640, 641, 642, 643, 644, 645, 646, 647
 648,
*Elset, elset=bigHoleLeft
   9,  10,  11,  12,  13,  14,  18,  33,  36,  37,  53,  54, 130, 131, 132, 133
 134, 135, 139, 154, 157, 158, 174, 175, 251, 252, 253, 254, 255, 256, 260, 275
 278, 279, 295, 296, 372, 373, 374, 375, 376, 377, 381, 396, 399, 400, 416, 417
*Nset, nset=bigHoleRight
  17,  18,  19,  20,  21,  22,  23,  24,  25,  26,  27,  28,  29, 169, 170, 171
 172, 173, 174, 175, 176, 177, 178, 179, 180, 181, 321, 322, 323, 324, 325, 326
 327, 328, 329, 330, 331, 332, 333, 473, 474, 475, 476, 477, 478, 479, 480, 481
 482, 483, 484, 485, 625, 626, 627, 628, 629, 630, 631, 632, 633, 634, 635, 636
 637,
*Elset, elset=bigHoleRight
   1,   2,   3,   4,   6,  25,  26,  27,  40,  43,  52,  55, 122, 123, 124, 125
 127, 146, 147, 148, 161, 164, 173, 176, 243, 244, 245, 246, 248, 267, 268, 269
 282, 285, 294, 297, 364, 365, 366, 367, 369, 388, 389, 390, 403, 406, 415, 418
*Nset, nset=thickness, generate
  29,  637,  152
*Elset, elset=thickness, generate
  43,  406,  121
** Section: rodSection
*Solid Section, elset=Set-2, material=Steel
,
*End Part
**  
**
** ASSEMBLY
**
*Assembly, name=Assembly
**  
*Instance, name=CAT_131210_Pleuel-1, part=CAT_131210_Pleuel
*End Instance
**  
*Nset, nset=smallHoleLeft, instance=CAT_131210_Pleuel-1
  44,  45,  46,  47,  48, 196, 197, 198, 199, 200, 348, 349, 350, 351, 352, 500
 501, 502, 503, 504, 652, 653, 654, 655, 656
*Elset, elset=smallHoleLeft, instance=CAT_131210_Pleuel-1
  20,  21,  49,  50, 141, 142, 170, 171, 262, 263, 291, 292, 383, 384, 412, 413
*Nset, nset=smallHoleRight, instance=CAT_131210_Pleuel-1
  41,  42,  43,  44,  45, 193, 194, 195, 196, 197, 345, 346, 347, 348, 349, 497
 498, 499, 500, 501, 649, 650, 651, 652, 653
*Elset, elset=smallHoleRight, instance=CAT_131210_Pleuel-1
  22,  23,  46,  70, 143, 144, 167, 191, 264, 265, 288, 312, 385, 386, 409, 433
*End Assembly
** 
** MATERIALS
** 
*Material, name=Steel
*Density
7.987e-9,
*Elastic
 2.1e+5, 0.3
** ----------------------------------------------------------------
**
** MASS&Stiffness
**
*Step
*MATRIX GENERATE, MASS, STIFFNESS
*MATRIX OUTPUT, MASS, STIFFNESS
*END Step
** ----------------------------------------------------------------
** 
** STEP: FrequencyAnalysis_withConstrain
** 
*Step, name=FrequencyAnalysis_withConstrain, perturbation
*Frequency, eigensolver=Lanczos, acoustic coupling=on, normalization=displacement
10, , , , , 
** 
** BOUNDARY CONDITIONS
** 
** Name: fixRodLeft Type: Displacement/Rotation
*Boundary
smallHoleLeft, 1, 1
smallHoleLeft, 2, 2
smallHoleLeft, 3, 3
smallHoleLeft, 4, 4
smallHoleLeft, 5, 5
smallHoleLeft, 6, 6
** Name: fixRodRight Type: Displacement/Rotation
*Boundary
smallHoleRight, 1, 1
smallHoleRight, 2, 2
smallHoleRight, 3, 3
smallHoleRight, 4, 4
smallHoleRight, 5, 5
smallHoleRight, 6, 6
** 
** OUTPUT REQUESTS
** 
*Restart, write, frequency=0
** 
** FIELD OUTPUT: F-Output-2
** 
*Output, field, variable=PRESELECT
*Output, Field
*Node Print, Mode=1, Last Mode=10
U
*End Step
