1

   Abaqus 6.12-2                                  Date 29-Apr-2013   Time 15:21:05
   



     PROCESSING PART, INSTANCE, AND ASSEMBLY INFORMATION
   *******************************************************


     END PROCESSING PART, INSTANCE, AND ASSEMBLY INFORMATION
   ***********************************************************




     OPTIONS BEING PROCESSED
   ***************************


  *Heading
  *Node
  *Element, type=C3D8R
  *Nset, nset=ASSEMBLY_PART-1-1_SET-1
  *Elset, elset=ASSEMBLY_PART-1-1_SET-1
  *Nset, nset=ASSEMBLY_SET-1
  *Elset, elset=ASSEMBLY_SET-1
  *material, name=STEEL
  *density
  *elastic
  *solidsection, elset=ASSEMBLY_PART-1-1_SET-1, material=STEEL
  *boundary
  *solidsection, elset=ASSEMBLY_PART-1-1_SET-1, material=STEEL
  *output, field, variable=PRESELECT
  *output, field
  *output, field, variable=PRESELECT
  *output, field
  *output, field, variable=PRESELECT
  *output, field
  *Step, name=FrequencyAnalysis, perturbation
  *frequency, eigensolver=LANCZOS, normalization=DISPLACEMENT, acousticcoupling=ON
  *output, field, variable=PRESELECT
  *output, field
  *Step, name=FrequencyAnalysis, perturbation
  *Step, name=FrequencyAnalysis, perturbation
  *frequency, eigensolver=LANCZOS, normalization=DISPLACEMENT, acousticcoupling=ON
  *frequency, eigensolver=LANCZOS, normalization=DISPLACEMENT, acousticcoupling=ON
  *output, field, variable=PRESELECT
  *output, field
  *nodeprint, mode=1, lastmode=3
  *endstep
  *boundary
  *Step, name=FrequencyAnalysis, perturbation
  *frequency, eigensolver=LANCZOS, normalization=DISPLACEMENT, acousticcoupling=ON
  *frequency, eigensolver=LANCZOS, normalization=DISPLACEMENT, acousticcoupling=ON
  *endstep


                              E L E M E N T,   N O D E,   A N D   S U R F A C E   M A P S


Assembly name: ASSEMBLY
Number of instances: 1

ASSEMBLY LEVEL
  node sets:
    SET-1:
      instance name: PART-1-1
      number of nodes: 15
      nodes: 
        35 36 37 38 206 207 208 209 210 211 212 213 323 324 325

  element sets:
    SET-1:
      instance name: PART-1-1
      number of elements: 8
      elements: 
        171 172 173 174 175 176 177 178

  Surfaces:

INSTANCE LEVEL
  node sets:
    Instance name: PART-1-1
      node set name: SET-1
        number of nodes: 374
        nodes: 
          1 2 3 4 5 6 7 8 9 10 11 12 13 14 15 16 17 18 19 20 21 22 23 24
          25 26 27 28 29 30 31 32 33 34 35 36 37 38 39 40 41 42 43 44 45
          46 47 48 49 50 51 52 53 54 55 56 57 58 59 60 61 62 63 64 65 66
          67 68 69 70 71 72 73 74 75 76 77 78 79 80 81 82 83 84 85 86 87
          88 89 90 91 92 93 94 95 96 97 98 99 100 101 102 103 104 105
          106 107 108 109 110 111 112 113 114 115 116 117 118 119 120
          121 122 123 124 125 126 127 128 129 130 131 132 133 134 135
          136 137 138 139 140 141 142 143 144 145 146 147 148 149 150
          151 152 153 154 155 156 157 158 159 160 161 162 163 164 165
          166 167 168 169 170 171 172 173 174 175 176 177 178 179 180
          181 182 183 184 185 186 187 188 189 190 191 192 193 194 195
          196 197 198 199 200 201 202 203 204 205 206 207 208 209 210
          211 212 213 214 215 216 217 218 219 220 221 222 223 224 225
          226 227 228 229 230 231 232 233 234 235 236 237 238 239 240
          241 242 243 244 245 246 247 248 249 250 251 252 253 254 255
          256 257 258 259 260 261 262 263 264 265 266 267 268 269 270
          271 272 273 274 275 276 277 278 279 280 281 282 283 284 285
          286 287 288 289 290 291 292 293 294 295 296 297 298 299 300
          301 302 303 304 305 306 307 308 309 310 311 312 313 314 315
          316 317 318 319 320 321 322 323 324 325 326 327 328 329 330
          331 332 333 334 335 336 337 338 339 340 341 342 343 344 345
          346 347 348 349 350 351 352 353 354 355 356 357 358 359 360
          361 362 363 364 365 366 367 368 369 370 371 372 373 374

  element sets:
    Instance name: PART-1-1
      element set name: SET-1
        number of elements: 178
        elements: 
          1 2 3 4 5 6 7 8 9 10 11 12 13 14 15 16 17 18 19 20 21 22 23 24
          25 26 27 28 29 30 31 32 33 34 35 36 37 38 39 40 41 42 43 44 45
          46 47 48 49 50 51 52 53 54 55 56 57 58 59 60 61 62 63 64 65 66
          67 68 69 70 71 72 73 74 75 76 77 78 79 80 81 82 83 84 85 86 87
          88 89 90 91 92 93 94 95 96 97 98 99 100 101 102 103 104 105
          106 107 108 109 110 111 112 113 114 115 116 117 118 119 120
          121 122 123 124 125 126 127 128 129 130 131 132 133 134 135
          136 137 138 139 140 141 142 143 144 145 146 147 148 149 150
          151 152 153 154 155 156 157 158 159 160 161 162 163 164 165
          166 167 168 169 170 171 172 173 174 175 176 177 178

  Surfaces:

GLOBAL TO LOCAL NODE AND ELEMENT MAPS
  Global     Local      
  node       node       
  number     number     
                        Instance name                                   
   1          1         PART-1-1                                        
   2          2         PART-1-1                                        
   3          3         PART-1-1                                        
   4          4         PART-1-1                                        
   5          5         PART-1-1                                        
   6          6         PART-1-1                                        
   7          7         PART-1-1                                        
   8          8         PART-1-1                                        
   9          9         PART-1-1                                        
   10         10        PART-1-1                                        
   11         11        PART-1-1                                        
   12         12        PART-1-1                                        
   13         13        PART-1-1                                        
   14         14        PART-1-1                                        
   15         15        PART-1-1                                        
   16         16        PART-1-1                                        
   17         17        PART-1-1                                        
   18         18        PART-1-1                                        
   19         19        PART-1-1                                        
   20         20        PART-1-1                                        
   21         21        PART-1-1                                        
   22         22        PART-1-1                                        
   23         23        PART-1-1                                        
   24         24        PART-1-1                                        
   25         25        PART-1-1                                        
   26         26        PART-1-1                                        
   27         27        PART-1-1                                        
   28         28        PART-1-1                                        
   29         29        PART-1-1                                        
   30         30        PART-1-1                                        
   31         31        PART-1-1                                        
   32         32        PART-1-1                                        
   33         33        PART-1-1                                        
   34         34        PART-1-1                                        
   35         35        PART-1-1                                        
   36         36        PART-1-1                                        
   37         37        PART-1-1                                        
   38         38        PART-1-1                                        
   39         39        PART-1-1                                        
   40         40        PART-1-1                                        
   41         41        PART-1-1                                        
   42         42        PART-1-1                                        
   43         43        PART-1-1                                        
   44         44        PART-1-1                                        
   45         45        PART-1-1                                        
   46         46        PART-1-1                                        
   47         47        PART-1-1                                        
   48         48        PART-1-1                                        
   49         49        PART-1-1                                        
   50         50        PART-1-1                                        
   51         51        PART-1-1                                        
   52         52        PART-1-1                                        
   53         53        PART-1-1                                        
   54         54        PART-1-1                                        
   55         55        PART-1-1                                        
   56         56        PART-1-1                                        
   57         57        PART-1-1                                        
   58         58        PART-1-1                                        
   59         59        PART-1-1                                        
   60         60        PART-1-1                                        
   61         61        PART-1-1                                        
   62         62        PART-1-1                                        
   63         63        PART-1-1                                        
   64         64        PART-1-1                                        
   65         65        PART-1-1                                        
   66         66        PART-1-1                                        
   67         67        PART-1-1                                        
   68         68        PART-1-1                                        
   69         69        PART-1-1                                        
   70         70        PART-1-1                                        
   71         71        PART-1-1                                        
   72         72        PART-1-1                                        
   73         73        PART-1-1                                        
   74         74        PART-1-1                                        
   75         75        PART-1-1                                        
   76         76        PART-1-1                                        
   77         77        PART-1-1                                        
   78         78        PART-1-1                                        
   79         79        PART-1-1                                        
   80         80        PART-1-1                                        
   81         81        PART-1-1                                        
   82         82        PART-1-1                                        
   83         83        PART-1-1                                        
   84         84        PART-1-1                                        
   85         85        PART-1-1                                        
   86         86        PART-1-1                                        
   87         87        PART-1-1                                        
   88         88        PART-1-1                                        
   89         89        PART-1-1                                        
   90         90        PART-1-1                                        
   91         91        PART-1-1                                        
   92         92        PART-1-1                                        
   93         93        PART-1-1                                        
   94         94        PART-1-1                                        
   95         95        PART-1-1                                        
   96         96        PART-1-1                                        
   97         97        PART-1-1                                        
   98         98        PART-1-1                                        
   99         99        PART-1-1                                        
   100        100       PART-1-1                                        
   101        101       PART-1-1                                        
   102        102       PART-1-1                                        
   103        103       PART-1-1                                        
   104        104       PART-1-1                                        
   105        105       PART-1-1                                        
   106        106       PART-1-1                                        
   107        107       PART-1-1                                        
   108        108       PART-1-1                                        
   109        109       PART-1-1                                        
   110        110       PART-1-1                                        
   111        111       PART-1-1                                        
   112        112       PART-1-1                                        
   113        113       PART-1-1                                        
   114        114       PART-1-1                                        
   115        115       PART-1-1                                        
   116        116       PART-1-1                                        
   117        117       PART-1-1                                        
   118        118       PART-1-1                                        
   119        119       PART-1-1                                        
   120        120       PART-1-1                                        
   121        121       PART-1-1                                        
   122        122       PART-1-1                                        
   123        123       PART-1-1                                        
   124        124       PART-1-1                                        
   125        125       PART-1-1                                        
   126        126       PART-1-1                                        
   127        127       PART-1-1                                        
   128        128       PART-1-1                                        
   129        129       PART-1-1                                        
   130        130       PART-1-1                                        
   131        131       PART-1-1                                        
   132        132       PART-1-1                                        
   133        133       PART-1-1                                        
   134        134       PART-1-1                                        
   135        135       PART-1-1                                        
   136        136       PART-1-1                                        
   137        137       PART-1-1                                        
   138        138       PART-1-1                                        
   139        139       PART-1-1                                        
   140        140       PART-1-1                                        
   141        141       PART-1-1                                        
   142        142       PART-1-1                                        
   143        143       PART-1-1                                        
   144        144       PART-1-1                                        
   145        145       PART-1-1                                        
   146        146       PART-1-1                                        
   147        147       PART-1-1                                        
   148        148       PART-1-1                                        
   149        149       PART-1-1                                        
   150        150       PART-1-1                                        
   151        151       PART-1-1                                        
   152        152       PART-1-1                                        
   153        153       PART-1-1                                        
   154        154       PART-1-1                                        
   155        155       PART-1-1                                        
   156        156       PART-1-1                                        
   157        157       PART-1-1                                        
   158        158       PART-1-1                                        
   159        159       PART-1-1                                        
   160        160       PART-1-1                                        
   161        161       PART-1-1                                        
   162        162       PART-1-1                                        
   163        163       PART-1-1                                        
   164        164       PART-1-1                                        
   165        165       PART-1-1                                        
   166        166       PART-1-1                                        
   167        167       PART-1-1                                        
   168        168       PART-1-1                                        
   169        169       PART-1-1                                        
   170        170       PART-1-1                                        
   171        171       PART-1-1                                        
   172        172       PART-1-1                                        
   173        173       PART-1-1                                        
   174        174       PART-1-1                                        
   175        175       PART-1-1                                        
   176        176       PART-1-1                                        
   177        177       PART-1-1                                        
   178        178       PART-1-1                                        
   179        179       PART-1-1                                        
   180        180       PART-1-1                                        
   181        181       PART-1-1                                        
   182        182       PART-1-1                                        
   183        183       PART-1-1                                        
   184        184       PART-1-1                                        
   185        185       PART-1-1                                        
   186        186       PART-1-1                                        
   187        187       PART-1-1                                        
   188        188       PART-1-1                                        
   189        189       PART-1-1                                        
   190        190       PART-1-1                                        
   191        191       PART-1-1                                        
   192        192       PART-1-1                                        
   193        193       PART-1-1                                        
   194        194       PART-1-1                                        
   195        195       PART-1-1                                        
   196        196       PART-1-1                                        
   197        197       PART-1-1                                        
   198        198       PART-1-1                                        
   199        199       PART-1-1                                        
   200        200       PART-1-1                                        
   201        201       PART-1-1                                        
   202        202       PART-1-1                                        
   203        203       PART-1-1                                        
   204        204       PART-1-1                                        
   205        205       PART-1-1                                        
   206        206       PART-1-1                                        
   207        207       PART-1-1                                        
   208        208       PART-1-1                                        
   209        209       PART-1-1                                        
   210        210       PART-1-1                                        
   211        211       PART-1-1                                        
   212        212       PART-1-1                                        
   213        213       PART-1-1                                        
   214        214       PART-1-1                                        
   215        215       PART-1-1                                        
   216        216       PART-1-1                                        
   217        217       PART-1-1                                        
   218        218       PART-1-1                                        
   219        219       PART-1-1                                        
   220        220       PART-1-1                                        
   221        221       PART-1-1                                        
   222        222       PART-1-1                                        
   223        223       PART-1-1                                        
   224        224       PART-1-1                                        
   225        225       PART-1-1                                        
   226        226       PART-1-1                                        
   227        227       PART-1-1                                        
   228        228       PART-1-1                                        
   229        229       PART-1-1                                        
   230        230       PART-1-1                                        
   231        231       PART-1-1                                        
   232        232       PART-1-1                                        
   233        233       PART-1-1                                        
   234        234       PART-1-1                                        
   235        235       PART-1-1                                        
   236        236       PART-1-1                                        
   237        237       PART-1-1                                        
   238        238       PART-1-1                                        
   239        239       PART-1-1                                        
   240        240       PART-1-1                                        
   241        241       PART-1-1                                        
   242        242       PART-1-1                                        
   243        243       PART-1-1                                        
   244        244       PART-1-1                                        
   245        245       PART-1-1                                        
   246        246       PART-1-1                                        
   247        247       PART-1-1                                        
   248        248       PART-1-1                                        
   249        249       PART-1-1                                        
   250        250       PART-1-1                                        
   251        251       PART-1-1                                        
   252        252       PART-1-1                                        
   253        253       PART-1-1                                        
   254        254       PART-1-1                                        
   255        255       PART-1-1                                        
   256        256       PART-1-1                                        
   257        257       PART-1-1                                        
   258        258       PART-1-1                                        
   259        259       PART-1-1                                        
   260        260       PART-1-1                                        
   261        261       PART-1-1                                        
   262        262       PART-1-1                                        
   263        263       PART-1-1                                        
   264        264       PART-1-1                                        
   265        265       PART-1-1                                        
   266        266       PART-1-1                                        
   267        267       PART-1-1                                        
   268        268       PART-1-1                                        
   269        269       PART-1-1                                        
   270        270       PART-1-1                                        
   271        271       PART-1-1                                        
   272        272       PART-1-1                                        
   273        273       PART-1-1                                        
   274        274       PART-1-1                                        
   275        275       PART-1-1                                        
   276        276       PART-1-1                                        
   277        277       PART-1-1                                        
   278        278       PART-1-1                                        
   279        279       PART-1-1                                        
   280        280       PART-1-1                                        
   281        281       PART-1-1                                        
   282        282       PART-1-1                                        
   283        283       PART-1-1                                        
   284        284       PART-1-1                                        
   285        285       PART-1-1                                        
   286        286       PART-1-1                                        
   287        287       PART-1-1                                        
   288        288       PART-1-1                                        
   289        289       PART-1-1                                        
   290        290       PART-1-1                                        
   291        291       PART-1-1                                        
   292        292       PART-1-1                                        
   293        293       PART-1-1                                        
   294        294       PART-1-1                                        
   295        295       PART-1-1                                        
   296        296       PART-1-1                                        
   297        297       PART-1-1                                        
   298        298       PART-1-1                                        
   299        299       PART-1-1                                        
   300        300       PART-1-1                                        
   301        301       PART-1-1                                        
   302        302       PART-1-1                                        
   303        303       PART-1-1                                        
   304        304       PART-1-1                                        
   305        305       PART-1-1                                        
   306        306       PART-1-1                                        
   307        307       PART-1-1                                        
   308        308       PART-1-1                                        
   309        309       PART-1-1                                        
   310        310       PART-1-1                                        
   311        311       PART-1-1                                        
   312        312       PART-1-1                                        
   313        313       PART-1-1                                        
   314        314       PART-1-1                                        
   315        315       PART-1-1                                        
   316        316       PART-1-1                                        
   317        317       PART-1-1                                        
   318        318       PART-1-1                                        
   319        319       PART-1-1                                        
   320        320       PART-1-1                                        
   321        321       PART-1-1                                        
   322        322       PART-1-1                                        
   323        323       PART-1-1                                        
   324        324       PART-1-1                                        
   325        325       PART-1-1                                        
   326        326       PART-1-1                                        
   327        327       PART-1-1                                        
   328        328       PART-1-1                                        
   329        329       PART-1-1                                        
   330        330       PART-1-1                                        
   331        331       PART-1-1                                        
   332        332       PART-1-1                                        
   333        333       PART-1-1                                        
   334        334       PART-1-1                                        
   335        335       PART-1-1                                        
   336        336       PART-1-1                                        
   337        337       PART-1-1                                        
   338        338       PART-1-1                                        
   339        339       PART-1-1                                        
   340        340       PART-1-1                                        
   341        341       PART-1-1                                        
   342        342       PART-1-1                                        
   343        343       PART-1-1                                        
   344        344       PART-1-1                                        
   345        345       PART-1-1                                        
   346        346       PART-1-1                                        
   347        347       PART-1-1                                        
   348        348       PART-1-1                                        
   349        349       PART-1-1                                        
   350        350       PART-1-1                                        
   351        351       PART-1-1                                        
   352        352       PART-1-1                                        
   353        353       PART-1-1                                        
   354        354       PART-1-1                                        
   355        355       PART-1-1                                        
   356        356       PART-1-1                                        
   357        357       PART-1-1                                        
   358        358       PART-1-1                                        
   359        359       PART-1-1                                        
   360        360       PART-1-1                                        
   361        361       PART-1-1                                        
   362        362       PART-1-1                                        
   363        363       PART-1-1                                        
   364        364       PART-1-1                                        
   365        365       PART-1-1                                        
   366        366       PART-1-1                                        
   367        367       PART-1-1                                        
   368        368       PART-1-1                                        
   369        369       PART-1-1                                        
   370        370       PART-1-1                                        
   371        371       PART-1-1                                        
   372        372       PART-1-1                                        
   373        373       PART-1-1                                        
   374        374       PART-1-1                                        

  Global     Local      
  element    element    
  number     number     
                        Instance name                                   
   1          1         PART-1-1                                        
   2          2         PART-1-1                                        
   3          3         PART-1-1                                        
   4          4         PART-1-1                                        
   5          5         PART-1-1                                        
   6          6         PART-1-1                                        
   7          7         PART-1-1                                        
   8          8         PART-1-1                                        
   9          9         PART-1-1                                        
   10         10        PART-1-1                                        
   11         11        PART-1-1                                        
   12         12        PART-1-1                                        
   13         13        PART-1-1                                        
   14         14        PART-1-1                                        
   15         15        PART-1-1                                        
   16         16        PART-1-1                                        
   17         17        PART-1-1                                        
   18         18        PART-1-1                                        
   19         19        PART-1-1                                        
   20         20        PART-1-1                                        
   21         21        PART-1-1                                        
   22         22        PART-1-1                                        
   23         23        PART-1-1                                        
   24         24        PART-1-1                                        
   25         25        PART-1-1                                        
   26         26        PART-1-1                                        
   27         27        PART-1-1                                        
   28         28        PART-1-1                                        
   29         29        PART-1-1                                        
   30         30        PART-1-1                                        
   31         31        PART-1-1                                        
   32         32        PART-1-1                                        
   33         33        PART-1-1                                        
   34         34        PART-1-1                                        
   35         35        PART-1-1                                        
   36         36        PART-1-1                                        
   37         37        PART-1-1                                        
   38         38        PART-1-1                                        
   39         39        PART-1-1                                        
   40         40        PART-1-1                                        
   41         41        PART-1-1                                        
   42         42        PART-1-1                                        
   43         43        PART-1-1                                        
   44         44        PART-1-1                                        
   45         45        PART-1-1                                        
   46         46        PART-1-1                                        
   47         47        PART-1-1                                        
   48         48        PART-1-1                                        
   49         49        PART-1-1                                        
   50         50        PART-1-1                                        
   51         51        PART-1-1                                        
   52         52        PART-1-1                                        
   53         53        PART-1-1                                        
   54         54        PART-1-1                                        
   55         55        PART-1-1                                        
   56         56        PART-1-1                                        
   57         57        PART-1-1                                        
   58         58        PART-1-1                                        
   59         59        PART-1-1                                        
   60         60        PART-1-1                                        
   61         61        PART-1-1                                        
   62         62        PART-1-1                                        
   63         63        PART-1-1                                        
   64         64        PART-1-1                                        
   65         65        PART-1-1                                        
   66         66        PART-1-1                                        
   67         67        PART-1-1                                        
   68         68        PART-1-1                                        
   69         69        PART-1-1                                        
   70         70        PART-1-1                                        
   71         71        PART-1-1                                        
   72         72        PART-1-1                                        
   73         73        PART-1-1                                        
   74         74        PART-1-1                                        
   75         75        PART-1-1                                        
   76         76        PART-1-1                                        
   77         77        PART-1-1                                        
   78         78        PART-1-1                                        
   79         79        PART-1-1                                        
   80         80        PART-1-1                                        
   81         81        PART-1-1                                        
   82         82        PART-1-1                                        
   83         83        PART-1-1                                        
   84         84        PART-1-1                                        
   85         85        PART-1-1                                        
   86         86        PART-1-1                                        
   87         87        PART-1-1                                        
   88         88        PART-1-1                                        
   89         89        PART-1-1                                        
   90         90        PART-1-1                                        
   91         91        PART-1-1                                        
   92         92        PART-1-1                                        
   93         93        PART-1-1                                        
   94         94        PART-1-1                                        
   95         95        PART-1-1                                        
   96         96        PART-1-1                                        
   97         97        PART-1-1                                        
   98         98        PART-1-1                                        
   99         99        PART-1-1                                        
   100        100       PART-1-1                                        
   101        101       PART-1-1                                        
   102        102       PART-1-1                                        
   103        103       PART-1-1                                        
   104        104       PART-1-1                                        
   105        105       PART-1-1                                        
   106        106       PART-1-1                                        
   107        107       PART-1-1                                        
   108        108       PART-1-1                                        
   109        109       PART-1-1                                        
   110        110       PART-1-1                                        
   111        111       PART-1-1                                        
   112        112       PART-1-1                                        
   113        113       PART-1-1                                        
   114        114       PART-1-1                                        
   115        115       PART-1-1                                        
   116        116       PART-1-1                                        
   117        117       PART-1-1                                        
   118        118       PART-1-1                                        
   119        119       PART-1-1                                        
   120        120       PART-1-1                                        
   121        121       PART-1-1                                        
   122        122       PART-1-1                                        
   123        123       PART-1-1                                        
   124        124       PART-1-1                                        
   125        125       PART-1-1                                        
   126        126       PART-1-1                                        
   127        127       PART-1-1                                        
   128        128       PART-1-1                                        
   129        129       PART-1-1                                        
   130        130       PART-1-1                                        
   131        131       PART-1-1                                        
   132        132       PART-1-1                                        
   133        133       PART-1-1                                        
   134        134       PART-1-1                                        
   135        135       PART-1-1                                        
   136        136       PART-1-1                                        
   137        137       PART-1-1                                        
   138        138       PART-1-1                                        
   139        139       PART-1-1                                        
   140        140       PART-1-1                                        
   141        141       PART-1-1                                        
   142        142       PART-1-1                                        
   143        143       PART-1-1                                        
   144        144       PART-1-1                                        
   145        145       PART-1-1                                        
   146        146       PART-1-1                                        
   147        147       PART-1-1                                        
   148        148       PART-1-1                                        
   149        149       PART-1-1                                        
   150        150       PART-1-1                                        
   151        151       PART-1-1                                        
   152        152       PART-1-1                                        
   153        153       PART-1-1                                        
   154        154       PART-1-1                                        
   155        155       PART-1-1                                        
   156        156       PART-1-1                                        
   157        157       PART-1-1                                        
   158        158       PART-1-1                                        
   159        159       PART-1-1                                        
   160        160       PART-1-1                                        
   161        161       PART-1-1                                        
   162        162       PART-1-1                                        
   163        163       PART-1-1                                        
   164        164       PART-1-1                                        
   165        165       PART-1-1                                        
   166        166       PART-1-1                                        
   167        167       PART-1-1                                        
   168        168       PART-1-1                                        
   169        169       PART-1-1                                        
   170        170       PART-1-1                                        
   171        171       PART-1-1                                        
   172        172       PART-1-1                                        
   173        173       PART-1-1                                        
   174        174       PART-1-1                                        
   175        175       PART-1-1                                        
   176        176       PART-1-1                                        
   177        177       PART-1-1                                        
   178        178       PART-1-1                                        

LOCAL TO GLOBAL NODE AND ELEMENT MAPS
                                                  Local      Global     
                                                  node       node       
                                                  number     number
  Instance name
  PART-1-1                                         1          1         
  PART-1-1                                         2          2         
  PART-1-1                                         3          3         
  PART-1-1                                         4          4         
  PART-1-1                                         5          5         
  PART-1-1                                         6          6         
  PART-1-1                                         7          7         
  PART-1-1                                         8          8         
  PART-1-1                                         9          9         
  PART-1-1                                         10         10        
  PART-1-1                                         11         11        
  PART-1-1                                         12         12        
  PART-1-1                                         13         13        
  PART-1-1                                         14         14        
  PART-1-1                                         15         15        
  PART-1-1                                         16         16        
  PART-1-1                                         17         17        
  PART-1-1                                         18         18        
  PART-1-1                                         19         19        
  PART-1-1                                         20         20        
  PART-1-1                                         21         21        
  PART-1-1                                         22         22        
  PART-1-1                                         23         23        
  PART-1-1                                         24         24        
  PART-1-1                                         25         25        
  PART-1-1                                         26         26        
  PART-1-1                                         27         27        
  PART-1-1                                         28         28        
  PART-1-1                                         29         29        
  PART-1-1                                         30         30        
  PART-1-1                                         31         31        
  PART-1-1                                         32         32        
  PART-1-1                                         33         33        
  PART-1-1                                         34         34        
  PART-1-1                                         35         35        
  PART-1-1                                         36         36        
  PART-1-1                                         37         37        
  PART-1-1                                         38         38        
  PART-1-1                                         39         39        
  PART-1-1                                         40         40        
  PART-1-1                                         41         41        
  PART-1-1                                         42         42        
  PART-1-1                                         43         43        
  PART-1-1                                         44         44        
  PART-1-1                                         45         45        
  PART-1-1                                         46         46        
  PART-1-1                                         47         47        
  PART-1-1                                         48         48        
  PART-1-1                                         49         49        
  PART-1-1                                         50         50        
  PART-1-1                                         51         51        
  PART-1-1                                         52         52        
  PART-1-1                                         53         53        
  PART-1-1                                         54         54        
  PART-1-1                                         55         55        
  PART-1-1                                         56         56        
  PART-1-1                                         57         57        
  PART-1-1                                         58         58        
  PART-1-1                                         59         59        
  PART-1-1                                         60         60        
  PART-1-1                                         61         61        
  PART-1-1                                         62         62        
  PART-1-1                                         63         63        
  PART-1-1                                         64         64        
  PART-1-1                                         65         65        
  PART-1-1                                         66         66        
  PART-1-1                                         67         67        
  PART-1-1                                         68         68        
  PART-1-1                                         69         69        
  PART-1-1                                         70         70        
  PART-1-1                                         71         71        
  PART-1-1                                         72         72        
  PART-1-1                                         73         73        
  PART-1-1                                         74         74        
  PART-1-1                                         75         75        
  PART-1-1                                         76         76        
  PART-1-1                                         77         77        
  PART-1-1                                         78         78        
  PART-1-1                                         79         79        
  PART-1-1                                         80         80        
  PART-1-1                                         81         81        
  PART-1-1                                         82         82        
  PART-1-1                                         83         83        
  PART-1-1                                         84         84        
  PART-1-1                                         85         85        
  PART-1-1                                         86         86        
  PART-1-1                                         87         87        
  PART-1-1                                         88         88        
  PART-1-1                                         89         89        
  PART-1-1                                         90         90        
  PART-1-1                                         91         91        
  PART-1-1                                         92         92        
  PART-1-1                                         93         93        
  PART-1-1                                         94         94        
  PART-1-1                                         95         95        
  PART-1-1                                         96         96        
  PART-1-1                                         97         97        
  PART-1-1                                         98         98        
  PART-1-1                                         99         99        
  PART-1-1                                         100        100       
  PART-1-1                                         101        101       
  PART-1-1                                         102        102       
  PART-1-1                                         103        103       
  PART-1-1                                         104        104       
  PART-1-1                                         105        105       
  PART-1-1                                         106        106       
  PART-1-1                                         107        107       
  PART-1-1                                         108        108       
  PART-1-1                                         109        109       
  PART-1-1                                         110        110       
  PART-1-1                                         111        111       
  PART-1-1                                         112        112       
  PART-1-1                                         113        113       
  PART-1-1                                         114        114       
  PART-1-1                                         115        115       
  PART-1-1                                         116        116       
  PART-1-1                                         117        117       
  PART-1-1                                         118        118       
  PART-1-1                                         119        119       
  PART-1-1                                         120        120       
  PART-1-1                                         121        121       
  PART-1-1                                         122        122       
  PART-1-1                                         123        123       
  PART-1-1                                         124        124       
  PART-1-1                                         125        125       
  PART-1-1                                         126        126       
  PART-1-1                                         127        127       
  PART-1-1                                         128        128       
  PART-1-1                                         129        129       
  PART-1-1                                         130        130       
  PART-1-1                                         131        131       
  PART-1-1                                         132        132       
  PART-1-1                                         133        133       
  PART-1-1                                         134        134       
  PART-1-1                                         135        135       
  PART-1-1                                         136        136       
  PART-1-1                                         137        137       
  PART-1-1                                         138        138       
  PART-1-1                                         139        139       
  PART-1-1                                         140        140       
  PART-1-1                                         141        141       
  PART-1-1                                         142        142       
  PART-1-1                                         143        143       
  PART-1-1                                         144        144       
  PART-1-1                                         145        145       
  PART-1-1                                         146        146       
  PART-1-1                                         147        147       
  PART-1-1                                         148        148       
  PART-1-1                                         149        149       
  PART-1-1                                         150        150       
  PART-1-1                                         151        151       
  PART-1-1                                         152        152       
  PART-1-1                                         153        153       
  PART-1-1                                         154        154       
  PART-1-1                                         155        155       
  PART-1-1                                         156        156       
  PART-1-1                                         157        157       
  PART-1-1                                         158        158       
  PART-1-1                                         159        159       
  PART-1-1                                         160        160       
  PART-1-1                                         161        161       
  PART-1-1                                         162        162       
  PART-1-1                                         163        163       
  PART-1-1                                         164        164       
  PART-1-1                                         165        165       
  PART-1-1                                         166        166       
  PART-1-1                                         167        167       
  PART-1-1                                         168        168       
  PART-1-1                                         169        169       
  PART-1-1                                         170        170       
  PART-1-1                                         171        171       
  PART-1-1                                         172        172       
  PART-1-1                                         173        173       
  PART-1-1                                         174        174       
  PART-1-1                                         175        175       
  PART-1-1                                         176        176       
  PART-1-1                                         177        177       
  PART-1-1                                         178        178       
  PART-1-1                                         179        179       
  PART-1-1                                         180        180       
  PART-1-1                                         181        181       
  PART-1-1                                         182        182       
  PART-1-1                                         183        183       
  PART-1-1                                         184        184       
  PART-1-1                                         185        185       
  PART-1-1                                         186        186       
  PART-1-1                                         187        187       
  PART-1-1                                         188        188       
  PART-1-1                                         189        189       
  PART-1-1                                         190        190       
  PART-1-1                                         191        191       
  PART-1-1                                         192        192       
  PART-1-1                                         193        193       
  PART-1-1                                         194        194       
  PART-1-1                                         195        195       
  PART-1-1                                         196        196       
  PART-1-1                                         197        197       
  PART-1-1                                         198        198       
  PART-1-1                                         199        199       
  PART-1-1                                         200        200       
  PART-1-1                                         201        201       
  PART-1-1                                         202        202       
  PART-1-1                                         203        203       
  PART-1-1                                         204        204       
  PART-1-1                                         205        205       
  PART-1-1                                         206        206       
  PART-1-1                                         207        207       
  PART-1-1                                         208        208       
  PART-1-1                                         209        209       
  PART-1-1                                         210        210       
  PART-1-1                                         211        211       
  PART-1-1                                         212        212       
  PART-1-1                                         213        213       
  PART-1-1                                         214        214       
  PART-1-1                                         215        215       
  PART-1-1                                         216        216       
  PART-1-1                                         217        217       
  PART-1-1                                         218        218       
  PART-1-1                                         219        219       
  PART-1-1                                         220        220       
  PART-1-1                                         221        221       
  PART-1-1                                         222        222       
  PART-1-1                                         223        223       
  PART-1-1                                         224        224       
  PART-1-1                                         225        225       
  PART-1-1                                         226        226       
  PART-1-1                                         227        227       
  PART-1-1                                         228        228       
  PART-1-1                                         229        229       
  PART-1-1                                         230        230       
  PART-1-1                                         231        231       
  PART-1-1                                         232        232       
  PART-1-1                                         233        233       
  PART-1-1                                         234        234       
  PART-1-1                                         235        235       
  PART-1-1                                         236        236       
  PART-1-1                                         237        237       
  PART-1-1                                         238        238       
  PART-1-1                                         239        239       
  PART-1-1                                         240        240       
  PART-1-1                                         241        241       
  PART-1-1                                         242        242       
  PART-1-1                                         243        243       
  PART-1-1                                         244        244       
  PART-1-1                                         245        245       
  PART-1-1                                         246        246       
  PART-1-1                                         247        247       
  PART-1-1                                         248        248       
  PART-1-1                                         249        249       
  PART-1-1                                         250        250       
  PART-1-1                                         251        251       
  PART-1-1                                         252        252       
  PART-1-1                                         253        253       
  PART-1-1                                         254        254       
  PART-1-1                                         255        255       
  PART-1-1                                         256        256       
  PART-1-1                                         257        257       
  PART-1-1                                         258        258       
  PART-1-1                                         259        259       
  PART-1-1                                         260        260       
  PART-1-1                                         261        261       
  PART-1-1                                         262        262       
  PART-1-1                                         263        263       
  PART-1-1                                         264        264       
  PART-1-1                                         265        265       
  PART-1-1                                         266        266       
  PART-1-1                                         267        267       
  PART-1-1                                         268        268       
  PART-1-1                                         269        269       
  PART-1-1                                         270        270       
  PART-1-1                                         271        271       
  PART-1-1                                         272        272       
  PART-1-1                                         273        273       
  PART-1-1                                         274        274       
  PART-1-1                                         275        275       
  PART-1-1                                         276        276       
  PART-1-1                                         277        277       
  PART-1-1                                         278        278       
  PART-1-1                                         279        279       
  PART-1-1                                         280        280       
  PART-1-1                                         281        281       
  PART-1-1                                         282        282       
  PART-1-1                                         283        283       
  PART-1-1                                         284        284       
  PART-1-1                                         285        285       
  PART-1-1                                         286        286       
  PART-1-1                                         287        287       
  PART-1-1                                         288        288       
  PART-1-1                                         289        289       
  PART-1-1                                         290        290       
  PART-1-1                                         291        291       
  PART-1-1                                         292        292       
  PART-1-1                                         293        293       
  PART-1-1                                         294        294       
  PART-1-1                                         295        295       
  PART-1-1                                         296        296       
  PART-1-1                                         297        297       
  PART-1-1                                         298        298       
  PART-1-1                                         299        299       
  PART-1-1                                         300        300       
  PART-1-1                                         301        301       
  PART-1-1                                         302        302       
  PART-1-1                                         303        303       
  PART-1-1                                         304        304       
  PART-1-1                                         305        305       
  PART-1-1                                         306        306       
  PART-1-1                                         307        307       
  PART-1-1                                         308        308       
  PART-1-1                                         309        309       
  PART-1-1                                         310        310       
  PART-1-1                                         311        311       
  PART-1-1                                         312        312       
  PART-1-1                                         313        313       
  PART-1-1                                         314        314       
  PART-1-1                                         315        315       
  PART-1-1                                         316        316       
  PART-1-1                                         317        317       
  PART-1-1                                         318        318       
  PART-1-1                                         319        319       
  PART-1-1                                         320        320       
  PART-1-1                                         321        321       
  PART-1-1                                         322        322       
  PART-1-1                                         323        323       
  PART-1-1                                         324        324       
  PART-1-1                                         325        325       
  PART-1-1                                         326        326       
  PART-1-1                                         327        327       
  PART-1-1                                         328        328       
  PART-1-1                                         329        329       
  PART-1-1                                         330        330       
  PART-1-1                                         331        331       
  PART-1-1                                         332        332       
  PART-1-1                                         333        333       
  PART-1-1                                         334        334       
  PART-1-1                                         335        335       
  PART-1-1                                         336        336       
  PART-1-1                                         337        337       
  PART-1-1                                         338        338       
  PART-1-1                                         339        339       
  PART-1-1                                         340        340       
  PART-1-1                                         341        341       
  PART-1-1                                         342        342       
  PART-1-1                                         343        343       
  PART-1-1                                         344        344       
  PART-1-1                                         345        345       
  PART-1-1                                         346        346       
  PART-1-1                                         347        347       
  PART-1-1                                         348        348       
  PART-1-1                                         349        349       
  PART-1-1                                         350        350       
  PART-1-1                                         351        351       
  PART-1-1                                         352        352       
  PART-1-1                                         353        353       
  PART-1-1                                         354        354       
  PART-1-1                                         355        355       
  PART-1-1                                         356        356       
  PART-1-1                                         357        357       
  PART-1-1                                         358        358       
  PART-1-1                                         359        359       
  PART-1-1                                         360        360       
  PART-1-1                                         361        361       
  PART-1-1                                         362        362       
  PART-1-1                                         363        363       
  PART-1-1                                         364        364       
  PART-1-1                                         365        365       
  PART-1-1                                         366        366       
  PART-1-1                                         367        367       
  PART-1-1                                         368        368       
  PART-1-1                                         369        369       
  PART-1-1                                         370        370       
  PART-1-1                                         371        371       
  PART-1-1                                         372        372       
  PART-1-1                                         373        373       
  PART-1-1                                         374        374       

                                                  Local      Global     
                                                  element    element    
                                                  number     number
  Instance name
  PART-1-1                                         1          1         
  PART-1-1                                         2          2         
  PART-1-1                                         3          3         
  PART-1-1                                         4          4         
  PART-1-1                                         5          5         
  PART-1-1                                         6          6         
  PART-1-1                                         7          7         
  PART-1-1                                         8          8         
  PART-1-1                                         9          9         
  PART-1-1                                         10         10        
  PART-1-1                                         11         11        
  PART-1-1                                         12         12        
  PART-1-1                                         13         13        
  PART-1-1                                         14         14        
  PART-1-1                                         15         15        
  PART-1-1                                         16         16        
  PART-1-1                                         17         17        
  PART-1-1                                         18         18        
  PART-1-1                                         19         19        
  PART-1-1                                         20         20        
  PART-1-1                                         21         21        
  PART-1-1                                         22         22        
  PART-1-1                                         23         23        
  PART-1-1                                         24         24        
  PART-1-1                                         25         25        
  PART-1-1                                         26         26        
  PART-1-1                                         27         27        
  PART-1-1                                         28         28        
  PART-1-1                                         29         29        
  PART-1-1                                         30         30        
  PART-1-1                                         31         31        
  PART-1-1                                         32         32        
  PART-1-1                                         33         33        
  PART-1-1                                         34         34        
  PART-1-1                                         35         35        
  PART-1-1                                         36         36        
  PART-1-1                                         37         37        
  PART-1-1                                         38         38        
  PART-1-1                                         39         39        
  PART-1-1                                         40         40        
  PART-1-1                                         41         41        
  PART-1-1                                         42         42        
  PART-1-1                                         43         43        
  PART-1-1                                         44         44        
  PART-1-1                                         45         45        
  PART-1-1                                         46         46        
  PART-1-1                                         47         47        
  PART-1-1                                         48         48        
  PART-1-1                                         49         49        
  PART-1-1                                         50         50        
  PART-1-1                                         51         51        
  PART-1-1                                         52         52        
  PART-1-1                                         53         53        
  PART-1-1                                         54         54        
  PART-1-1                                         55         55        
  PART-1-1                                         56         56        
  PART-1-1                                         57         57        
  PART-1-1                                         58         58        
  PART-1-1                                         59         59        
  PART-1-1                                         60         60        
  PART-1-1                                         61         61        
  PART-1-1                                         62         62        
  PART-1-1                                         63         63        
  PART-1-1                                         64         64        
  PART-1-1                                         65         65        
  PART-1-1                                         66         66        
  PART-1-1                                         67         67        
  PART-1-1                                         68         68        
  PART-1-1                                         69         69        
  PART-1-1                                         70         70        
  PART-1-1                                         71         71        
  PART-1-1                                         72         72        
  PART-1-1                                         73         73        
  PART-1-1                                         74         74        
  PART-1-1                                         75         75        
  PART-1-1                                         76         76        
  PART-1-1                                         77         77        
  PART-1-1                                         78         78        
  PART-1-1                                         79         79        
  PART-1-1                                         80         80        
  PART-1-1                                         81         81        
  PART-1-1                                         82         82        
  PART-1-1                                         83         83        
  PART-1-1                                         84         84        
  PART-1-1                                         85         85        
  PART-1-1                                         86         86        
  PART-1-1                                         87         87        
  PART-1-1                                         88         88        
  PART-1-1                                         89         89        
  PART-1-1                                         90         90        
  PART-1-1                                         91         91        
  PART-1-1                                         92         92        
[...]
  
       NODE FOOT-   U1          U2          U3       
            NOTE
  
          1     -4.2396E-02  0.2362     -0.3103     
          2      4.2396E-02 -0.2362     -0.3103     
          3      4.2206E-02 -0.2363     -0.7912     
          4     -4.2206E-02  0.2363     -0.7912     
          5     -4.2372E-02  0.2333     -0.2287     
          6      4.2372E-02 -0.2333     -0.2287     
          7      4.0227E-02 -0.2298     -0.4656     
          8     -4.0227E-02  0.2298     -0.4656     
          9      4.1127E-02 -0.2272     -0.6969     
         10     -4.1127E-02  0.2272     -0.6969     
         11     -3.4428E-02  0.1731     -7.4266E-02 
         12      3.4428E-02 -0.1731     -7.4266E-02 
         13      5.6207E-02 -0.1703      0.1196     
         14     -5.6207E-02  0.1703      0.1196     
         15     -4.0496E-02  0.2491       1.000     
         16      4.0496E-02 -0.2491       1.000     
         17      3.9386E-02 -0.2491      0.9153     
         18     -3.9386E-02  0.2491      0.9153     
         19     -7.7366E-02  0.4673     -0.6956     
         20     -8.9027E-02  0.4619     -0.2383     
         21      8.9027E-02 -0.4619     -0.2383     
         22      7.7366E-02 -0.4673     -0.6956     
         23     -0.1025      0.3638      0.1209     
         24     -3.8159E-02  0.3603     -0.2666     
         25      3.8159E-02 -0.3603     -0.2666     
         26      0.1025     -0.3638      0.1209     
         27     -1.8781E-02  3.9747E-02 -5.7471E-02 
         28      1.8781E-02 -3.9747E-02 -5.7471E-02 
         29      3.9317E-02 -4.2528E-02 -3.1469E-02 
         30      7.9055E-02 -7.7493E-02 -3.6904E-02 
         31      9.3196E-03 -7.3398E-02 -8.4239E-02 
         32     -9.3196E-03  7.3398E-02 -8.4239E-02 
         33     -7.9055E-02  7.7493E-02 -3.6904E-02 
         34     -3.9317E-02  4.2528E-02 -3.1469E-02 
         39      1.2502E-11  1.1504E-10 -0.3073     
         40      4.3483E-02 -0.2364     -0.5518     
         41      3.0770E-12  1.1517E-10 -0.7944     
         42     -4.3483E-02  0.2364     -0.5518     
         43      8.6310E-12  1.1978E-10 -0.2259     
         44      8.7261E-12  1.1476E-10 -0.4663     
         45      6.4670E-12  1.1320E-10 -0.6987     
         46     -4.1177E-02  0.2326     -0.7489     
         47     -4.0229E-02  0.2403     -0.2635     
         48      4.1177E-02 -0.2326     -0.7489     
         49      4.0229E-02 -0.2403     -0.2635     
         50      1.1748E-11  5.9133E-11 -7.3905E-02 
         51     -5.7300E-12  5.7708E-11  0.1223     
         52     -4.9329E-02  0.1888      8.1742E-02 
         53     -4.5575E-02  0.1961      5.5215E-02 
         54     -4.4530E-02  0.2022      2.1608E-02 
         55     -4.4336E-02  0.2065     -1.1047E-02 
         56     -4.4819E-02  0.2109     -4.7902E-02 
         57     -4.4157E-02  0.2150     -8.2457E-02 
         58     -4.5229E-02  0.2182     -0.1206     
         59     -4.3665E-02  0.2229     -0.1555     
         60     -4.4349E-02  0.2227     -0.1944     
         61     -3.9993E-02  0.2256     -0.4236     
         62     -4.1972E-02  0.2213     -0.3851     
         63     -3.9936E-02  0.2190     -0.3432     
         64     -4.1047E-02  0.2145     -0.3046     
         65     -3.9872E-02  0.2110     -0.2626     
         66     -3.9656E-02  0.2065     -0.2247     
         67     -3.8788E-02  0.2018     -0.1833     
         68     -3.7446E-02  0.1969     -0.1472     
         69     -3.6696E-02  0.1882     -0.1069     
         70      4.4349E-02 -0.2227     -0.1944     
         71      4.3665E-02 -0.2229     -0.1555     
         72      4.5229E-02 -0.2182     -0.1206     
         73      4.4157E-02 -0.2150     -8.2457E-02 
         74      4.4819E-02 -0.2109     -4.7902E-02 
         75      4.4336E-02 -0.2065     -1.1047E-02 
         76      4.4530E-02 -0.2022      2.1608E-02 
         77      4.5575E-02 -0.1961      5.5215E-02 
         78      4.9329E-02 -0.1888      8.1742E-02 
         79      3.6696E-02 -0.1882     -0.1069     
         80      3.7446E-02 -0.1969     -0.1472     
         81      3.8788E-02 -0.2018     -0.1833     
         82      3.9656E-02 -0.2065     -0.2247     
         83      3.9872E-02 -0.2110     -0.2626     
         84      4.1047E-02 -0.2145     -0.3046     
         85      3.9936E-02 -0.2190     -0.3432     
         86      4.1972E-02 -0.2213     -0.3851     
         87      3.9993E-02 -0.2256     -0.4236     
         88      3.5796E-11  1.3632E-10  0.9991     
         89      4.1980E-02 -0.2483      0.9560     
         90      3.7015E-11  1.2598E-10  0.9155     
         91     -4.1980E-02  0.2483      0.9560     
         92     -4.2694E-02  0.2474      0.6664     
         93     -3.9653E-02  0.2492      0.4208     
         94     -4.3145E-02  0.2430      0.1731     
         95     -4.0935E-02  0.2447     -6.8429E-02 
         96     -3.7949E-02  0.2451      1.5496E-02 
         97     -4.0695E-02  0.2431      0.2564     
         98     -3.9969E-02  0.2491      0.5053     
         99     -4.1267E-02  0.2474      0.7499     
        100      4.0935E-02 -0.2447     -6.8429E-02 
        101      4.3145E-02 -0.2430      0.1731     
        102      3.9653E-02 -0.2492      0.4208     
        103      4.2694E-02 -0.2474      0.6664     
        104      4.1267E-02 -0.2474      0.7499     
        105      3.9969E-02 -0.2491      0.5053     
        106      4.0695E-02 -0.2431      0.2564     
        107      3.7949E-02 -0.2451      1.5496E-02 
        108     -8.4708E-02  0.4657     -0.4614     
        109      8.4708E-02 -0.4657     -0.4614     
        110     -8.6879E-02  0.4641     -0.1915     
        111     -8.7658E-02  0.4553     -0.1563     
        112     -8.7861E-02  0.4488     -0.1202     
        113     -8.7711E-02  0.4413     -8.2778E-02 
        114     -8.7503E-02  0.4330     -4.7729E-02 
        115     -8.6743E-02  0.4246     -1.1462E-02 
        116     -8.6130E-02  0.4143      2.1818E-02 
        117     -8.6533E-02  0.4039      5.5153E-02 
        118     -9.2360E-02  0.3870      8.5672E-02 
        119     -8.0535E-02  0.4626     -0.6569     
        120     -8.1153E-02  0.4554     -0.6112     
        121     -7.9910E-02  0.4489     -0.5694     
        122     -7.9383E-02  0.4409     -0.5235     
        123     -7.8418E-02  0.4324     -0.4810     
        124     -7.6669E-02  0.4238     -0.4352     
        125     -7.4206E-02  0.4133     -0.3925     
        126     -6.9272E-02  0.4020     -0.3465     
        127     -5.8840E-02  0.3856     -0.3043     
        128      8.0535E-02 -0.4626     -0.6569     
        129      8.1153E-02 -0.4554     -0.6112     
        130      7.9910E-02 -0.4489     -0.5694     
        131      7.9383E-02 -0.4409     -0.5235     
        132      7.8418E-02 -0.4324     -0.4810     
        133      7.6669E-02 -0.4238     -0.4352     
        134      7.4206E-02 -0.4133     -0.3925     
        135      6.9272E-02 -0.4020     -0.3465     
        136      5.8840E-02 -0.3856     -0.3043     
        137      8.6879E-02 -0.4641     -0.1915     
        138      8.7658E-02 -0.4553     -0.1563     
        139      8.7861E-02 -0.4488     -0.1202     
        140      8.7711E-02 -0.4413     -8.2778E-02 
        141      8.7503E-02 -0.4330     -4.7729E-02 
        142      8.6743E-02 -0.4246     -1.1462E-02 
        143      8.6130E-02 -0.4143      2.1818E-02 
        144      8.6533E-02 -0.4039      5.5153E-02 
        145      9.2360E-02 -0.3870      8.5672E-02 
        146     -7.2423E-02  0.3630     -7.4320E-02 
        147     -1.5109E-02  0.1700     -0.2620     
        148      1.5853E-11  5.9645E-11 -0.2598     
        149      1.5109E-02 -0.1700     -0.2620     
        150      7.2423E-02 -0.3630     -7.4320E-02 
        151     -2.9736E-02  6.7638E-02 -5.6012E-02 
        152     -2.7059E-02  9.1738E-02 -5.9201E-02 
        153     -3.0717E-02  0.1216     -5.5178E-02 
        154     -3.7007E-02  0.1459     -6.4396E-02 
        155     -0.1259      0.1239      0.1238     
        156     -0.1263      0.1264      7.3424E-02 
        157     -0.1246      8.5853E-02  3.5825E-02 
        158     -0.1225      9.2221E-02 -2.5879E-02 
        159      2.9736E-02 -6.7638E-02 -5.6012E-02 
        160      2.7059E-02 -9.1738E-02 -5.9201E-02 
        161      3.0717E-02 -0.1216     -5.5178E-02 
        162      3.7007E-02 -0.1459     -6.4396E-02 
        163      2.1532E-02 -0.3121     -0.2290     
        164      5.0532E-03 -0.2534     -0.1881     
        165     -1.3803E-03 -0.1820     -0.1479     
        166      3.8497E-03 -0.1217     -0.1121     
        167     -3.8497E-03  0.1217     -0.1121     
        168      1.3803E-03  0.1820     -0.1479     
        169     -5.0532E-03  0.2534     -0.1881     
        170     -2.1532E-02  0.3121     -0.2290     
        171     -2.8666E-02  0.1016     -2.3268E-02 
        172     -4.8117E-02  0.1954      3.3561E-02 
        173     -5.4240E-02  0.2496      7.2531E-02 
        174     -5.0479E-02  0.3391      0.1198     
        175      5.0479E-02 -0.3391      0.1198     
        176      5.4240E-02 -0.2496      7.2531E-02 
        177      4.8117E-02 -0.1954      3.3561E-02 
        178      2.8666E-02 -0.1016     -2.3268E-02 
        179      0.1225     -9.2221E-02 -2.5879E-02 
        180      0.1246     -8.5853E-02  3.5825E-02 
        181      0.1263     -0.1264      7.3424E-02 
        182      0.1259     -0.1239      0.1238     
        183      2.7780E-12  5.7447E-11 -5.6535E-02 
        184      4.3584E-02 -7.3300E-02 -6.1307E-02 
        185      2.1140E-03 -4.1838E-02 -8.6746E-02 
        186      1.7632E-11  5.6776E-11 -8.8757E-02 
        187     -2.1140E-03  4.1838E-02 -8.6746E-02 
        188     -4.3584E-02  7.3300E-02 -6.1307E-02 
        189     -3.4021E-11  6.5313E-11 -3.3710E-02 
        190      1.7097E-02 -4.6333E-02 -6.3746E-02 
        191      2.0258E-02 -3.0127E-02 -4.2087E-02 
        192      9.9772E-03 -1.6322E-02 -2.2281E-02 
        193      8.4148E-03 -3.5747E-03 -9.2893E-03 
        194     -8.4148E-03  3.5747E-03 -9.2893E-03 
        195     -9.9772E-03  1.6322E-02 -2.2281E-02 
        196     -2.0258E-02  3.0127E-02 -4.2087E-02 
        197     -1.7097E-02  4.6333E-02 -6.3746E-02 
        198      5.1707E-02 -5.2904E-02 -1.5802E-02 
        199      3.9325E-02 -3.4557E-02 -9.5826E-03 
        200      2.3324E-02 -2.1406E-02 -2.5793E-03 
        201      1.5816E-02 -1.2669E-02 -2.7303E-03 
        202     -1.5816E-02  1.2669E-02 -2.7303E-03 
        203     -2.3324E-02  2.1406E-02 -2.5793E-03 
        204     -3.9325E-02  3.4557E-02 -9.5826E-03 
        205     -5.1707E-02  5.2904E-02 -1.5802E-02 
        214      5.0131E-12  1.1389E-10 -0.5509     
        215     -4.3594E-02  0.2342     -0.5072     
        216      4.3594E-02 -0.2342     -0.5072     
        217      1.2458E-11  1.2146E-10 -0.2680     
        218      4.0906E-12  1.1453E-10 -0.7459     
        219      4.1841E-12  7.2090E-11 -0.1067     
        220      9.6561E-12  8.1783E-11 -0.1471     
        221      7.1148E-12  8.8424E-11 -0.1831     
        222      8.8511E-12  9.6306E-11 -0.2245     
        223      8.1121E-12  1.0100E-10 -0.2627     
        224      8.1191E-12  1.0608E-10 -0.3044     
        225      9.0217E-12  1.0884E-10 -0.3433     
        226      7.3017E-12  1.1128E-10 -0.3851     
        227      9.7558E-12  1.1403E-10 -0.4229     
        228     -9.3019E-12  7.1022E-11  7.8226E-02 
        229      2.2687E-12  8.3154E-11  5.6327E-02 
        230     -1.1270E-12  8.7302E-11  2.0847E-02 
        231      2.8688E-12  9.7258E-11 -1.0577E-02 
        232      2.3836E-12  9.9639E-11 -4.8095E-02 
        233      4.8445E-12  1.0716E-10 -8.2472E-02 
        234      4.8944E-12  1.0698E-10 -0.1204     
        235      7.4655E-12  1.1337E-10 -0.1555     
        236      7.7226E-12  1.0956E-10 -0.1958     
        237      3.5828E-11  1.3055E-10  0.9556     
        238     -4.1870E-02  0.2392     -2.7670E-02 
        239     -3.9623E-02  0.2481      0.2171     
        240     -4.1961E-02  0.2460      0.4614     
        241     -3.9915E-02  0.2495      0.7099     
        242      4.1870E-02 -0.2392     -2.7670E-02 
        243      3.9623E-02 -0.2481      0.2171     
        244      4.1961E-02 -0.2460      0.4614     
        245      3.9915E-02 -0.2495      0.7099     
        246      1.7403E-11  1.2951E-10  1.4167E-02 
        247      2.1799E-11  1.3182E-10  0.2569     
        248      2.6016E-11  1.3521E-10  0.5042     
        249      3.1209E-11  1.3505E-10  0.7507     
        250      1.7096E-11  1.1957E-10 -6.8854E-02 
        251      1.9817E-11  1.2217E-10  0.1725     
        252      2.7037E-11  1.2493E-10  0.4208     
        253      2.9865E-11  1.2486E-10  0.6661     
        254     -8.4477E-02  0.4621     -0.4247     
        255     -8.3743E-02  0.4562     -0.3846     
        256     -8.4103E-02  0.4486     -0.3437     
        257     -8.3736E-02  0.4411     -0.3042     
        258     -8.2853E-02  0.4330     -0.2635     
        259     -8.1902E-02  0.4238     -0.2242     
        260     -8.0119E-02  0.4147     -0.1847     
        261     -7.8362E-02  0.4025     -0.1466     
        262     -7.4854E-02  0.3897     -0.1089     
        263     -3.8935E-02  0.2249     -0.6555     
        264      8.4677E-12  1.1304E-10 -0.6561     
        265      3.8935E-02 -0.2249     -0.6555     
        266     -3.6089E-02  0.2225     -0.6119     
        267      1.0984E-11  1.1162E-10 -0.6107     
        268      3.6089E-02 -0.2225     -0.6119     
        269     -3.7837E-02  0.2178     -0.5685     
        270      1.0613E-11  1.0818E-10 -0.5694     
        271      3.7837E-02 -0.2178     -0.5685     
        272     -3.5819E-02  0.2152     -0.5238     
        273      1.2494E-11  1.0614E-10 -0.5227     
        274      3.5819E-02 -0.2152     -0.5238     
        275     -3.5972E-02  0.2103     -0.4801     
        276      1.3496E-11  1.0087E-10 -0.4810     
        277      3.5972E-02 -0.2103     -0.4801     
        278     -3.4458E-02  0.2064     -0.4349     
        279      1.4437E-11  9.5995E-11 -0.4337     
        280      3.4458E-02 -0.2064     -0.4349     
        281     -3.2887E-02  0.2014     -0.3914     
        282      1.6378E-11  8.8883E-11 -0.3922     
        283      3.2887E-02 -0.2014     -0.3914     
        284     -2.9722E-02  0.1956     -0.3450     
        285      1.4480E-11  8.1518E-11 -0.3433     
        286      2.9722E-02 -0.1956     -0.3450     
        287     -2.2918E-02  0.1876     -0.3000     
        288      2.1137E-11  7.4321E-11 -0.2994     
        289      2.2918E-02 -0.1876     -0.3000     
        290      8.4477E-02 -0.4621     -0.4247     
        291      8.3743E-02 -0.4562     -0.3846     
        292      8.4103E-02 -0.4486     -0.3437     
        293      8.3736E-02 -0.4411     -0.3042     
        294      8.2853E-02 -0.4330     -0.2635     
        295      8.1902E-02 -0.4238     -0.2242     
        296      8.0119E-02 -0.4147     -0.1847     
        297      7.8362E-02 -0.4025     -0.1466     
        298      7.4854E-02 -0.3897     -0.1089     
        299      3.5736E-11  5.0364E-11 -7.7305E-02 
        300      5.0713E-11  5.2855E-11 -5.3430E-02 
        301      5.0503E-11  6.1393E-11 -6.0595E-02 
        302      4.0030E-11  6.7262E-11 -4.1627E-02 
        303     -4.1232E-03  0.1471     -0.2179     
        304     -5.9393E-12  4.8734E-11 -0.2056     
        305      4.1232E-03 -0.1471     -0.2179     
        306     -1.2834E-03  0.1173     -0.1869     
        307     -2.1785E-11  5.2493E-11 -0.1855     
        308      1.2834E-03 -0.1173     -0.1869     
        309      6.3898E-04  9.4451E-02 -0.1461     
        310     -2.2723E-11  6.2667E-11 -0.1462     
        311     -6.3898E-04 -9.4451E-02 -0.1461     
        312      5.7419E-03  6.4251E-02 -0.1205     
        313     -1.3657E-11  6.8712E-11 -0.1322     
        314     -5.7419E-03 -6.4251E-02 -0.1205     
        315     -6.2920E-02  0.3186     -5.8626E-02 
        316     -6.2677E-02  0.2521     -5.6437E-02 
        317     -5.7342E-02  0.1869     -6.0540E-02 
        318     -4.5467E-02  0.1192     -6.4300E-02 
        319      6.2920E-02 -0.3186     -5.8626E-02 
        320      6.2677E-02 -0.2521     -5.6437E-02 
        321      5.7342E-02 -0.1869     -6.0540E-02 
        322      4.5467E-02 -0.1192     -6.4300E-02 
        326     -1.3622E-03  2.2653E-02 -6.5542E-02 
        327      2.0249E-11  3.4124E-11 -6.4889E-02 
        328      1.3622E-03 -2.2653E-02 -6.5542E-02 
        329     -5.7725E-03  1.4976E-02 -4.0607E-02 
        330      1.1990E-11  2.1357E-11 -4.1693E-02 
        331      5.7725E-03 -1.4976E-02 -4.0607E-02 
        332     -7.1771E-04  7.4863E-03 -2.1134E-02 
        333      8.1346E-12  1.0926E-11 -1.9380E-02 
        334      7.1771E-04 -7.4863E-03 -2.1134E-02 
        335     -5.9900E-04  1.9185E-03 -7.3054E-03 
        336      6.4404E-12  4.2540E-12 -7.8241E-03 
        337      5.9900E-04 -1.9185E-03 -7.3054E-03 
        338      3.6906E-02 -4.6749E-02 -4.0974E-02 
        339      2.5661E-02 -3.2173E-02 -2.5972E-02 
        340      2.1739E-02 -1.8507E-02 -1.3386E-02 
        341      8.3201E-03 -7.1900E-03 -6.6531E-03 
        342     -3.6906E-02  4.6749E-02 -4.0974E-02 
        343     -2.5661E-02  3.2173E-02 -2.5972E-02 
        344     -2.1739E-02  1.8507E-02 -1.3386E-02 
        345     -8.3201E-03  7.1900E-03 -6.6531E-03 
        346      2.9761E-02 -2.5550E-02 -1.1212E-02 
        347     -2.6352E-11  3.3808E-11 -7.8691E-03 
        348     -2.9761E-02  2.5550E-02 -1.1212E-02 
        349      2.3834E-02 -1.7591E-02 -5.6690E-03 
        350     -1.1064E-11  2.1743E-11 -6.0175E-03 
        351     -2.3834E-02  1.7591E-02 -5.6690E-03 
        352      1.3883E-02 -9.5876E-03 -8.3549E-04 
        353     -1.1002E-11  9.9786E-12  1.4071E-03 
        354     -1.3883E-02  9.5876E-03 -8.3549E-04 
        355      9.2834E-03 -7.2014E-03  2.7376E-03 
        356     -3.8241E-12  3.3616E-12  3.4995E-03 
        357     -9.2834E-03  7.2014E-03  2.7376E-03 
        358      6.9775E-12  1.1696E-10 -0.5082     
        359      1.6543E-11  1.2385E-10 -2.8547E-02 
        360      2.1379E-11  1.2781E-10  0.2170     
        361      2.5918E-11  1.2929E-10  0.4608     
        362      3.1114E-11  1.3063E-10  0.7102     
        363      1.8568E-02 -2.4751E-02 -4.0963E-02 
        364     -1.8568E-02  2.4751E-02 -4.0963E-02 
        365     -4.7538E-12  3.4724E-11 -4.0280E-02 
        366      1.1463E-02 -1.4186E-02 -2.2424E-02 
        367     -1.1463E-02  1.4186E-02 -2.2424E-02 
        368     -5.3629E-14  2.0629E-11 -2.2336E-02 
        369      1.0759E-02 -9.6632E-03 -1.2446E-02 
        370     -1.0759E-02  9.6632E-03 -1.2446E-02 
        371      8.9103E-13  1.0703E-11 -1.0926E-02 
        372      2.6678E-03 -2.8332E-03 -3.0170E-03 
        373     -2.6678E-03  2.8332E-03 -3.0170E-03 
        374     -7.5773E-13  2.3272E-12 -2.9804E-03 

 MAXIMUM         0.1263      0.4673       1.000    
 AT NODE               181          19          16

 MINIMUM        -0.1263     -0.4673     -0.7944    
 AT NODE               156          22          41


          THE ANALYSIS HAS BEEN COMPLETED



                              ANALYSIS COMPLETE



     JOB TIME SUMMARY
       USER TIME (SEC)      =  0.20000    
       SYSTEM TIME (SEC)    =  0.10000    
       TOTAL CPU TIME (SEC) =  0.30000    
       WALLCLOCK TIME (SEC) =          1
